<?xml version="1.0" encoding="UTF-8"?>

<!-- generated on 2023-09-20 14:31:24.103568 by randomTrips.py v1_18_0+0000-03ecfdea036
<configuration>
    <net-file value="nets/ingolstadt7/ingolstadt7.net.xml"/>
    <output-trip-file value="nets/ingolstadt7/ingolstadt7_train.rou.xml"/>
    <lanes value="True"/>
    <fringe-factor value="max"/>
    <random value="True"/>
    <min-distance value="50.0"/>
    <validate value="True"/>
    <end value="86400.0"/>
    <insertion-rate value="120.0 240.0 360.0 480.0 600.0 720.0 840.0 960.0 1080.0 1200.0 1320.0 1440.0 1560.0 1680.0 1800.0 1920.0 2040.0 2160.0 2280.0 2400.0 2520.0 2640.0 2760.0 2880.0"/>
    <random-depart value="True"/>
    <duarouter-remove-loops value="true"/>
</configuration>
-->

<!-- generated on 2023-09-20 14:31:22 by Eclipse SUMO duarouter Version 1.18.0
<configuration xmlns:xsi="http://www.w3.org/2001/XMLSchema-instance" xsi:noNamespaceSchemaLocation="http://sumo.dlr.de/xsd/duarouterConfiguration.xsd">

    <input>
        <net-file value="nets/ingolstadt7/ingolstadt7.net.xml"/>
        <route-files value="nets/ingolstadt7/ingolstadt7_train.rou.xml"/>
    </input>

    <output>
        <output-file value="nets/ingolstadt7/ingolstadt7_train.rou.xml.tmp"/>
        <alternatives-output value="NUL"/>
        <write-trips value="true"/>
    </output>

    <processing>
        <remove-loops value="true"/>
    </processing>

    <time>
        <begin value="0"/>
        <end value="86400.0"/>
    </time>

    <report>
        <no-warnings value="true"/>
        <ignore-errors value="true"/>
        <no-step-log value="true"/>
    </report>

</configuration>
-->

<routes xmlns:xsi="http://www.w3.org/2001/XMLSchema-instance" xsi:noNamespaceSchemaLocation="http://sumo.dlr.de/xsd/routes_file.xsd">
    <trip id="0" depart="28.00" from="-173169611#0" to="32978638#0"/>
    <trip id="1" depart="42.00" from="-32978638#0" to="-266565295#5"/>
    <trip id="2" depart="116.00" from="653473569#5" to="24634415"/>
    <trip id="3" depart="131.00" from="-32978638#0" to="24693977#1"/>
    <trip id="4" depart="131.00" from="10425609#0" to="22716549#0"/>
    <trip id="6" depart="188.00" from="-22716549#6" to="201956810"/>
    <trip id="7" depart="218.00" from="315358253#1" to="201956820"/>
    <trip id="9" depart="367.00" from="-24634415" to="-104010328"/>
    <trip id="10" depart="383.00" from="124812856#0" to="202070434#2"/>
    <trip id="11" depart="396.00" from="-24634415" to="-315358253#1"/>
    <trip id="12" depart="437.00" from="653473569#5" to="-266565295#5"/>
    <trip id="13" depart="465.00" from="27920078#0" to="22716549#0"/>
    <trip id="14" depart="480.00" from="24608844" to="202070434#2"/>
    <trip id="15" depart="500.00" from="27920078#0" to="22716549#0"/>
    <trip id="16" depart="501.00" from="24599188#0.94" to="-315358253#1"/>
    <trip id="17" depart="507.00" from="27920078#0" to="201956810"/>
    <trip id="18" depart="519.00" from="-32978638#0" to="-653473569#5"/>
    <trip id="19" depart="654.00" from="-22716549#6" to="201956811#0"/>
    <trip id="20" depart="665.00" from="-22716549#6" to="-37386279"/>
    <trip id="21" depart="673.00" from="27920078#0" to="201956820"/>
    <trip id="22" depart="673.00" from="24608846#1" to="202070434#2"/>
    <trip id="23" depart="683.00" from="-173169611#0" to="-37386279"/>
    <trip id="24" depart="767.00" from="10425609#0" to="202070434#2"/>
    <trip id="25" depart="842.00" from="-173169611#0" to="24634415"/>
    <trip id="26" depart="847.00" from="-173169611#0" to="22716549#0"/>
    <trip id="27" depart="867.00" from="37386279" to="202070434#2"/>
    <trip id="28" depart="881.00" from="653473569#5" to="-37386279"/>
    <trip id="29" depart="924.00" from="-24634415" to="201956811#0"/>
    <trip id="30" depart="942.00" from="266565295#5" to="201956820"/>
    <trip id="31" depart="992.00" from="-22716549#6" to="24693977#1"/>
    <trip id="32" depart="1040.00" from="-173169611#0" to="-266565295#5"/>
    <trip id="33" depart="1053.00" from="24608846#1" to="24634415"/>
    <trip id="34" depart="1158.00" from="-173169611#0" to="-266565295#5"/>
    <trip id="35" depart="1194.00" from="24599188#0.94" to="-104010328"/>
    <trip id="36" depart="1204.00" from="10425609#0" to="202070434#2"/>
    <trip id="37" depart="1230.00" from="-22716549#6" to="201956810"/>
    <trip id="38" depart="1259.00" from="653473569#5" to="201956820"/>
    <trip id="39" depart="1305.00" from="-24693977#1" to="24634415"/>
    <trip id="40" depart="1329.00" from="27920078#0" to="24634415"/>
    <trip id="41" depart="1331.00" from="10425609#0" to="-104010328"/>
    <trip id="42" depart="1365.00" from="315358253#1" to="32978638#0"/>
    <trip id="43" depart="1387.00" from="37386279" to="-104010328"/>
    <trip id="44" depart="1395.00" from="24608846#1" to="-266565295#5"/>
    <trip id="45" depart="1454.00" from="315358253#1" to="22716549#0"/>
    <trip id="47" depart="1508.00" from="266565295#5" to="32978638#0"/>
    <trip id="48" depart="1535.00" from="266565295#5" to="-104010328"/>
    <trip id="49" depart="1590.00" from="-32978638#0" to="201956820"/>
    <trip id="51" depart="1672.00" from="-24693977#1" to="201956820"/>
    <trip id="52" depart="1674.00" from="24608844" to="32978638#0"/>
    <trip id="53" depart="1716.00" from="24599188#0.94" to="24693977#1"/>
    <trip id="54" depart="1743.00" from="266565295#5" to="-104010328"/>
    <trip id="55" depart="1757.00" from="25145012#7" to="32978638#0"/>
    <trip id="56" depart="1778.00" from="-24693977#1" to="-104010328"/>
    <trip id="57" depart="1782.00" from="124812856#0" to="24634415"/>
    <trip id="59" depart="1805.00" from="-22716549#6" to="201956820"/>
    <trip id="60" depart="1818.00" from="-24634415" to="201956811#0"/>
    <trip id="61" depart="1825.00" from="24608846#1" to="-266565295#5"/>
    <trip id="62" depart="1841.00" from="24599188#0.94" to="201956810"/>
    <trip id="63" depart="1866.00" from="24608844" to="24634415"/>
    <trip id="64" depart="1869.00" from="10425609#0" to="-315358253#1"/>
    <trip id="65" depart="1921.00" from="37386279" to="24693977#1"/>
    <trip id="66" depart="1935.00" from="315358253#1" to="32978638#0"/>
    <trip id="67" depart="1937.00" from="37386279" to="24634415"/>
    <trip id="68" depart="1992.00" from="-24693977#1" to="201956811#0"/>
    <trip id="69" depart="2008.00" from="27920078#0" to="201956811#0"/>
    <trip id="70" depart="2087.00" from="-24693977#1" to="-37386279"/>
    <trip id="72" depart="2100.00" from="-173169611#0" to="201956820"/>
    <trip id="73" depart="2108.00" from="24599188#0.94" to="24693977#1"/>
    <trip id="75" depart="2150.00" from="24599188#0.94" to="32978638#0"/>
    <trip id="76" depart="2150.00" from="-24693977#1" to="201956811#0"/>
    <trip id="77" depart="2158.00" from="315358253#1" to="32978638#0"/>
    <trip id="78" depart="2221.00" from="266565295#5" to="32978638#0"/>
    <trip id="79" depart="2314.00" from="124812856#0" to="201956811#0"/>
    <trip id="80" depart="2350.00" from="24608844" to="-83304175#2"/>
    <trip id="81" depart="2363.00" from="-24693977#1" to="202070434#2"/>
    <trip id="82" depart="2387.00" from="24608846#1" to="22716549#0"/>
    <trip id="83" depart="2391.00" from="-24693977#1" to="-315358253#1"/>
    <trip id="84" depart="2436.00" from="37386279" to="32978638#0"/>
    <trip id="85" depart="2437.00" from="124812856#0" to="24693977#1"/>
    <trip id="86" depart="2438.00" from="24608846#1" to="-315358253#1"/>
    <trip id="87" depart="2534.00" from="-32978638#0" to="202070434#2"/>
    <trip id="88" depart="2548.00" from="-32978638#0" to="-266565295#5"/>
    <trip id="89" depart="2579.00" from="24608844" to="201956810"/>
    <trip id="90" depart="2688.00" from="27920078#0" to="201956820"/>
    <trip id="92" depart="2725.00" from="37386279" to="-104010328"/>
    <trip id="93" depart="2727.00" from="-22716549#6" to="202070434#2"/>
    <trip id="94" depart="2763.00" from="315358253#1" to="202070434#2"/>
    <trip id="95" depart="2800.00" from="653473569#5" to="-315358253#1"/>
    <trip id="96" depart="2825.00" from="653473569#5" to="201956820"/>
    <trip id="97" depart="2865.00" from="124812856#0" to="24693977#1"/>
    <trip id="98" depart="2927.00" from="-173169611#0" to="201956811#0"/>
    <trip id="100" depart="2953.00" from="24608846#1" to="32978638#0"/>
    <trip id="101" depart="3037.00" from="-24634415" to="-83304175#2"/>
    <trip id="102" depart="3058.00" from="27920078#0" to="24693977#1"/>
    <trip id="103" depart="3112.00" from="-22716549#6" to="-653473569#5"/>
    <trip id="104" depart="3113.00" from="10425609#0" to="24693977#1"/>
    <trip id="105" depart="3167.00" from="124812856#0" to="-653473569#5"/>
    <trip id="106" depart="3215.00" from="24608844" to="-266565295#5"/>
    <trip id="107" depart="3215.00" from="-24693977#1" to="-104010328"/>
    <trip id="108" depart="3227.00" from="24608844" to="24693977#1"/>
    <trip id="109" depart="3314.00" from="124812856#0" to="24634415"/>
    <trip id="110" depart="3345.00" from="24599188#0.94" to="24634415"/>
    <trip id="111" depart="3390.00" from="-173169611#0" to="201956820"/>
    <trip id="112" depart="3417.00" from="266565295#5" to="-653473569#5"/>
    <trip id="113" depart="3434.00" from="-24693977#1" to="202070434#2"/>
    <trip id="114" depart="3464.00" from="-24693977#1" to="202070434#2"/>
    <trip id="115" depart="3466.00" from="25145012#7" to="32978638#0"/>
    <trip id="116" depart="3493.00" from="315358253#1" to="24693977#1"/>
    <trip id="118" depart="3559.00" from="-22716549#6" to="24634415"/>
    <trip id="119" depart="3582.00" from="24599188#0.94" to="-266565295#5"/>
    <trip id="120" depart="3609.00" from="24599188#0.94" to="202070434#2"/>
    <trip id="121" depart="3631.00" from="-22716549#6" to="201956820"/>
    <trip id="122" depart="3632.00" from="315358253#1" to="-653473569#5"/>
    <trip id="124" depart="3677.00" from="653473569#5" to="24634415"/>
    <trip id="125" depart="3693.00" from="-24693977#1" to="-104010328"/>
    <trip id="126" depart="3696.00" from="-24693977#1" to="22716549#0"/>
    <trip id="128" depart="3713.00" from="27920078#0" to="-37386279"/>
    <trip id="130" depart="3725.00" from="27920078#0" to="-83304175#2"/>
    <trip id="131" depart="3726.00" from="24608846#1" to="-266565295#5"/>
    <trip id="133" depart="3766.00" from="-24634415" to="202070434#2"/>
    <trip id="134" depart="3766.00" from="10425609#0" to="32978638#0"/>
    <trip id="135" depart="3767.00" from="-22716549#6" to="24634415"/>
    <trip id="137" depart="3823.00" from="24608844" to="201956810"/>
    <trip id="138" depart="3865.00" from="24599188#0.94" to="32978638#0"/>
    <trip id="139" depart="3892.00" from="124812856#0" to="24693977#1"/>
    <trip id="140" depart="3904.00" from="27920078#0" to="32978638#0"/>
    <trip id="141" depart="3925.00" from="-24634415" to="24693977#1"/>
    <trip id="143" depart="3993.00" from="10425609#0" to="201956810"/>
    <trip id="144" depart="4003.00" from="10425609#0" to="32978638#0"/>
    <trip id="145" depart="4017.00" from="10425609#0" to="201956810"/>
    <trip id="146" depart="4038.00" from="10425609#0" to="-266565295#5"/>
    <trip id="147" depart="4043.00" from="37386279" to="202070434#2"/>
    <trip id="148" depart="4056.00" from="10425609#0" to="-266565295#5"/>
    <trip id="149" depart="4089.00" from="266565295#5" to="-83304175#2"/>
    <trip id="150" depart="4128.00" from="124812856#0" to="202070434#2"/>
    <trip id="151" depart="4128.00" from="-32978638#0" to="24693977#1"/>
    <trip id="152" depart="4143.00" from="27920078#0" to="24693977#1"/>
    <trip id="153" depart="4147.00" from="27920078#0" to="-37386279"/>
    <trip id="154" depart="4209.00" from="25145012#7" to="202070434#2"/>
    <trip id="155" depart="4222.00" from="266565295#5" to="201956820"/>
    <trip id="157" depart="4267.00" from="-24693977#1" to="-653473569#5"/>
    <trip id="159" depart="4308.00" from="27920078#0" to="-83304175#2"/>
    <trip id="160" depart="4324.00" from="37386279" to="24693977#1"/>
    <trip id="161" depart="4344.00" from="27920078#0" to="24634415"/>
    <trip id="162" depart="4358.00" from="10425609#0" to="201956810"/>
    <trip id="163" depart="4364.00" from="315358253#1" to="201956811#0"/>
    <trip id="164" depart="4408.00" from="27920078#0" to="-653473569#5"/>
    <trip id="166" depart="4428.00" from="27920078#0" to="-653473569#5"/>
    <trip id="167" depart="4435.00" from="27920078#0" to="201956820"/>
    <trip id="168" depart="4527.00" from="24608844" to="-266565295#5"/>
    <trip id="169" depart="4553.00" from="653473569#5" to="32978638#0"/>
    <trip id="170" depart="4555.00" from="25145012#7" to="24634415"/>
    <trip id="171" depart="4555.00" from="-32978638#0" to="202070434#2"/>
    <trip id="172" depart="4593.00" from="124812856#0" to="24693977#1"/>
    <trip id="173" depart="4616.00" from="653473569#5" to="32978638#0"/>
    <trip id="174" depart="4618.00" from="27920078#0" to="201956811#0"/>
    <trip id="175" depart="4629.00" from="27920078#0" to="32978638#0"/>
    <trip id="176" depart="4678.00" from="24608846#1" to="24634415"/>
    <trip id="177" depart="4685.00" from="27920078#0" to="-266565295#5"/>
    <trip id="178" depart="4700.00" from="-24693977#1" to="-266565295#5"/>
    <trip id="179" depart="4710.00" from="-173169611#0" to="-653473569#5"/>
    <trip id="180" depart="4716.00" from="266565295#5" to="201956810"/>
    <trip id="181" depart="4724.00" from="24608844" to="-315358253#1"/>
    <trip id="182" depart="4752.00" from="124812856#0" to="-104010328"/>
    <trip id="183" depart="4770.00" from="-173169611#0" to="-266565295#5"/>
    <trip id="184" depart="4783.00" from="25145012#7" to="201956820"/>
    <trip id="185" depart="4785.00" from="37386279" to="-315358253#1"/>
    <trip id="186" depart="4788.00" from="-24634415" to="24693977#1"/>
    <trip id="187" depart="4797.00" from="-22716549#6" to="-104010328"/>
    <trip id="188" depart="4802.00" from="-24634415" to="24693977#1"/>
    <trip id="189" depart="4825.00" from="-22716549#6" to="202070434#2"/>
    <trip id="190" depart="4825.00" from="-22716549#6" to="-83304175#2"/>
    <trip id="191" depart="4831.00" from="37386279" to="22716549#0"/>
    <trip id="192" depart="4840.00" from="25145012#7" to="32978638#0"/>
    <trip id="193" depart="4857.00" from="-24693977#1" to="32978638#0"/>
    <trip id="194" depart="4878.00" from="24599188#0.94" to="24634415"/>
    <trip id="195" depart="4880.00" from="10425609#0" to="-37386279"/>
    <trip id="196" depart="4884.00" from="10425609#0" to="24693977#1"/>
    <trip id="197" depart="4893.00" from="27920078#0" to="24693977#1"/>
    <trip id="198" depart="4896.00" from="653473569#5" to="201956811#0"/>
    <trip id="199" depart="4908.00" from="-173169611#0" to="-37386279"/>
    <trip id="200" depart="4938.00" from="-24693977#1" to="201956810"/>
    <trip id="201" depart="4939.00" from="-24634415" to="32978638#0"/>
    <trip id="202" depart="4963.00" from="315358253#1" to="201956820"/>
    <trip id="203" depart="4970.00" from="24599188#0.94" to="22716549#0"/>
    <trip id="204" depart="4980.00" from="266565295#5" to="-24608844"/>
    <trip id="205" depart="4994.00" from="-24634415" to="-104010328"/>
    <trip id="206" depart="5003.00" from="10425609#0" to="-83304175#2"/>
    <trip id="207" depart="5005.00" from="315358253#1" to="-83304175#2"/>
    <trip id="208" depart="5006.00" from="315358253#1" to="24634415"/>
    <trip id="209" depart="5045.00" from="27920078#0" to="201956810"/>
    <trip id="212" depart="5060.00" from="37386279" to="22716549#0"/>
    <trip id="214" depart="5080.00" from="-24634415" to="201956820"/>
    <trip id="215" depart="5083.00" from="653473569#5" to="-37386279"/>
    <trip id="216" depart="5099.00" from="24608846#1" to="-266565295#5"/>
    <trip id="217" depart="5112.00" from="653473569#5" to="22716549#0"/>
    <trip id="218" depart="5112.00" from="-32978638#0" to="-653473569#5"/>
    <trip id="219" depart="5119.00" from="25145012#7" to="32978638#0"/>
    <trip id="220" depart="5157.00" from="25145012#7" to="201956810"/>
    <trip id="221" depart="5237.00" from="-24634415" to="-266565295#5"/>
    <trip id="222" depart="5240.00" from="-24634415" to="22716549#0"/>
    <trip id="223" depart="5260.00" from="10425609#0" to="201956810"/>
    <trip id="224" depart="5266.00" from="-32978638#0" to="-266565295#5"/>
    <trip id="225" depart="5270.00" from="-32978638#0" to="24693977#1"/>
    <trip id="227" depart="5301.00" from="-24693977#1" to="-83304175#2"/>
    <trip id="228" depart="5323.00" from="653473569#5" to="24693977#1"/>
    <trip id="229" depart="5354.00" from="-24693977#1" to="24634415"/>
    <trip id="230" depart="5361.00" from="315358253#1" to="-104010328"/>
    <trip id="231" depart="5364.00" from="124812856#0" to="-37386279"/>
    <trip id="232" depart="5373.00" from="653473569#5" to="24634415"/>
    <trip id="233" depart="5411.00" from="24608846#1" to="24634415"/>
    <trip id="234" depart="5414.00" from="25145012#7" to="202070434#2"/>
    <trip id="235" depart="5453.00" from="25145012#7" to="201956820"/>
    <trip id="236" depart="5456.00" from="10425609#0" to="-315358253#1"/>
    <trip id="237" depart="5456.00" from="266565295#5" to="202070434#2"/>
    <trip id="238" depart="5456.00" from="653473569#5" to="201956810"/>
    <trip id="239" depart="5465.00" from="124812856#0" to="-83304175#2"/>
    <trip id="240" depart="5487.00" from="10425609#0" to="24634415"/>
    <trip id="241" depart="5507.00" from="-24693977#1" to="-83304175#2"/>
    <trip id="242" depart="5514.00" from="266565295#5" to="-653473569#5"/>
    <trip id="243" depart="5526.00" from="653473569#5" to="202070434#2"/>
    <trip id="244" depart="5634.00" from="-24693977#1" to="202070434#2"/>
    <trip id="245" depart="5642.00" from="37386279" to="202070434#2"/>
    <trip id="246" depart="5655.00" from="-24634415" to="-653473569#5"/>
    <trip id="247" depart="5673.00" from="653473569#5" to="32978638#0"/>
    <trip id="248" depart="5674.00" from="27920078#0" to="-104010328"/>
    <trip id="249" depart="5692.00" from="25145012#7" to="24634415"/>
    <trip id="250" depart="5719.00" from="24608844" to="-266565295#5"/>
    <trip id="251" depart="5757.00" from="-22716549#6" to="201956810"/>
    <trip id="252" depart="5795.00" from="24608846#1" to="201956820"/>
    <trip id="253" depart="5797.00" from="37386279" to="-653473569#5"/>
    <trip id="254" depart="5826.00" from="124812856#0" to="-266565295#5"/>
    <trip id="255" depart="5831.00" from="24599188#0.94" to="201956810"/>
    <trip id="256" depart="5832.00" from="653473569#5" to="24634415"/>
    <trip id="257" depart="5839.00" from="27920078#0" to="-104010328"/>
    <trip id="258" depart="5847.00" from="37386279" to="32978638#0"/>
    <trip id="259" depart="5850.00" from="10425609#0" to="201956810"/>
    <trip id="261" depart="5864.00" from="24608846#1" to="201956810"/>
    <trip id="263" depart="5876.00" from="-24634415" to="-37386279"/>
    <trip id="264" depart="5883.00" from="27920078#0" to="24634415"/>
    <trip id="265" depart="5892.00" from="315358253#1" to="201956820"/>
    <trip id="266" depart="5900.00" from="24608844" to="22716549#0"/>
    <trip id="267" depart="5907.00" from="27920078#0" to="-83304175#2"/>
    <trip id="268" depart="5912.00" from="653473569#5" to="202070434#2"/>
    <trip id="269" depart="5919.00" from="315358253#1" to="22716549#0"/>
    <trip id="270" depart="5948.00" from="10425609#0" to="-37386279"/>
    <trip id="271" depart="5987.00" from="27920078#0" to="201956820"/>
    <trip id="274" depart="6045.00" from="24608844" to="-83304175#2"/>
    <trip id="275" depart="6087.00" from="24608844" to="201956811#0"/>
    <trip id="276" depart="6100.00" from="27920078#0" to="22716549#0"/>
    <trip id="277" depart="6107.00" from="-22716549#6" to="-266565295#5"/>
    <trip id="280" depart="6159.00" from="25145012#7" to="201956820"/>
    <trip id="281" depart="6171.00" from="10425609#0" to="202070434#2"/>
    <trip id="282" depart="6173.00" from="24599188#0.94" to="201956820"/>
    <trip id="283" depart="6200.00" from="-22716549#6" to="201956820"/>
    <trip id="284" depart="6219.00" from="25145012#7" to="-37386279"/>
    <trip id="285" depart="6230.00" from="124812856#0" to="32978638#0"/>
    <trip id="286" depart="6239.00" from="24608846#1" to="-104010328"/>
    <trip id="287" depart="6273.00" from="-32978638#0" to="-266565295#5"/>
    <trip id="288" depart="6288.00" from="-24693977#1" to="201956810"/>
    <trip id="289" depart="6351.00" from="-32978638#0" to="24634415"/>
    <trip id="290" depart="6366.00" from="-24693977#1" to="-83304175#2"/>
    <trip id="291" depart="6367.00" from="-32978638#0" to="202070434#2"/>
    <trip id="292" depart="6370.00" from="653473569#5" to="202070434#2"/>
    <trip id="293" depart="6405.00" from="315358253#1" to="-37386279"/>
    <trip id="294" depart="6412.00" from="24599188#0.94" to="-653473569#5"/>
    <trip id="295" depart="6435.00" from="27920078#0" to="-83304175#2"/>
    <trip id="296" depart="6441.00" from="24608844" to="-266565295#5"/>
    <trip id="298" depart="6448.00" from="27920078#0" to="-315358253#1"/>
    <trip id="299" depart="6460.00" from="-24634415" to="-266565295#5"/>
    <trip id="300" depart="6461.00" from="266565295#5" to="201956810"/>
    <trip id="301" depart="6462.00" from="-24693977#1" to="201956811#0"/>
    <trip id="302" depart="6479.00" from="266565295#5" to="-653473569#5"/>
    <trip id="303" depart="6492.00" from="-173169611#0" to="201956811#0"/>
    <trip id="304" depart="6498.00" from="124812856#0" to="-266565295#5"/>
    <trip id="305" depart="6536.00" from="-22716549#6" to="-315358253#1"/>
    <trip id="306" depart="6540.00" from="10425609#0" to="-37386279"/>
    <trip id="307" depart="6540.00" from="-173169611#0" to="-315358253#1"/>
    <trip id="308" depart="6541.00" from="653473569#5" to="24693977#1"/>
    <trip id="309" depart="6545.00" from="-24634415" to="202070434#2"/>
    <trip id="310" depart="6576.00" from="-22716549#6" to="-315358253#1"/>
    <trip id="311" depart="6581.00" from="-24634415" to="-37386279"/>
    <trip id="312" depart="6593.00" from="266565295#5" to="-37386279"/>
    <trip id="313" depart="6615.00" from="-24693977#1" to="201956810"/>
    <trip id="314" depart="6621.00" from="10425609#0" to="-37386279"/>
    <trip id="315" depart="6626.00" from="-24693977#1" to="32978638#0"/>
    <trip id="316" depart="6634.00" from="24608846#1" to="202070434#2"/>
    <trip id="318" depart="6646.00" from="24608846#1" to="201956810"/>
    <trip id="319" depart="6654.00" from="-24693977#1" to="201956820"/>
    <trip id="320" depart="6658.00" from="315358253#1" to="-266565295#5"/>
    <trip id="322" depart="6706.00" from="24608846#1" to="-104010328"/>
    <trip id="323" depart="6709.00" from="24608846#1" to="-266565295#5"/>
    <trip id="324" depart="6724.00" from="27920078#0" to="201956810"/>
    <trip id="325" depart="6726.00" from="-24693977#1" to="24634415"/>
    <trip id="326" depart="6730.00" from="10425609#0" to="-266565295#5"/>
    <trip id="327" depart="6748.00" from="27920078#0" to="-83304175#2"/>
    <trip id="328" depart="6753.00" from="124812856#0" to="-37386279"/>
    <trip id="329" depart="6760.00" from="266565295#5" to="201956820"/>
    <trip id="330" depart="6774.00" from="653473569#5" to="201956810"/>
    <trip id="331" depart="6780.00" from="27920078#0" to="-266565295#5"/>
    <trip id="332" depart="6787.00" from="124812856#0" to="-653473569#5"/>
    <trip id="334" depart="6831.00" from="27920078#0" to="32978638#0"/>
    <trip id="335" depart="6835.00" from="-173169611#0" to="202070434#2"/>
    <trip id="336" depart="6882.00" from="10425609#0" to="-83304175#2"/>
    <trip id="337" depart="6887.00" from="653473569#5" to="24634415"/>
    <trip id="338" depart="6896.00" from="-32978638#0" to="202070434#2"/>
    <trip id="340" depart="6905.00" from="-173169611#0" to="22716549#0"/>
    <trip id="341" depart="6912.00" from="-24693977#1" to="202070434#2"/>
    <trip id="342" depart="6929.00" from="27920078#0" to="-266565295#5"/>
    <trip id="343" depart="6939.00" from="-24693977#1" to="32978638#0"/>
    <trip id="344" depart="6939.00" from="25145012#7" to="-83304175#2"/>
    <trip id="345" depart="6941.00" from="10425609#0" to="-83304175#2"/>
    <trip id="347" depart="7017.00" from="315358253#1" to="201956820"/>
    <trip id="348" depart="7043.00" from="315358253#1" to="-104010328"/>
    <trip id="349" depart="7044.00" from="-24693977#1" to="-266565295#5"/>
    <trip id="350" depart="7059.00" from="-32978638#0" to="-83304175#2"/>
    <trip id="351" depart="7061.00" from="266565295#5" to="24634415"/>
    <trip id="352" depart="7071.00" from="266565295#5" to="-315358253#1"/>
    <trip id="353" depart="7084.00" from="10425609#0" to="24693977#1"/>
    <trip id="355" depart="7126.00" from="-173169611#0" to="201956811#0"/>
    <trip id="356" depart="7130.00" from="-22716549#6" to="-266565295#5"/>
    <trip id="357" depart="7133.00" from="315358253#1" to="201956820"/>
    <trip id="358" depart="7186.00" from="24608846#1" to="-315358253#1"/>
    <trip id="359" depart="7190.00" from="266565295#5" to="202070434#2"/>
    <trip id="360" depart="7225.00" from="315358253#1" to="32978638#0"/>
    <trip id="361" depart="7232.00" from="-173169611#0" to="-37386279"/>
    <trip id="363" depart="7251.00" from="-24693977#1" to="201956820"/>
    <trip id="364" depart="7263.00" from="-24693977#1" to="-37386279"/>
    <trip id="366" depart="7275.00" from="37386279" to="-266565295#5"/>
    <trip id="367" depart="7276.00" from="266565295#5" to="24693977#1"/>
    <trip id="368" depart="7282.00" from="-24634415" to="-653473569#5"/>
    <trip id="369" depart="7305.00" from="27920078#0" to="-315358253#1"/>
    <trip id="370" depart="7307.00" from="10425609#0" to="-37386279"/>
    <trip id="371" depart="7323.00" from="25145012#7" to="-266565295#5"/>
    <trip id="372" depart="7325.00" from="266565295#5" to="-37386279"/>
    <trip id="373" depart="7351.00" from="24599188#0.94" to="-104010328"/>
    <trip id="374" depart="7351.00" from="-24693977#1" to="-37386279"/>
    <trip id="375" depart="7355.00" from="124812856#0" to="-104010328"/>
    <trip id="376" depart="7365.00" from="10425609#0" to="24634415"/>
    <trip id="378" depart="7404.00" from="-32978638#0" to="-24608846#1"/>
    <trip id="379" depart="7404.00" from="315358253#1" to="32978638#0"/>
    <trip id="380" depart="7445.00" from="-22716549#6" to="202070434#2"/>
    <trip id="382" depart="7450.00" from="-22716549#6" to="-315358253#1"/>
    <trip id="383" depart="7457.00" from="24608844" to="-653473569#5"/>
    <trip id="384" depart="7457.00" from="266565295#5" to="22716549#0"/>
    <trip id="386" depart="7467.00" from="10425609#0" to="24693977#1"/>
    <trip id="387" depart="7472.00" from="266565295#5" to="201956810"/>
    <trip id="388" depart="7474.00" from="-173169611#0" to="202070434#2"/>
    <trip id="389" depart="7481.00" from="124812856#0" to="-653473569#5"/>
    <trip id="391" depart="7519.00" from="653473569#5" to="-266565295#5"/>
    <trip id="392" depart="7527.00" from="-22716549#6" to="-266565295#5"/>
    <trip id="393" depart="7540.00" from="315358253#1" to="24634415"/>
    <trip id="394" depart="7543.00" from="27920078#0" to="201956810"/>
    <trip id="395" depart="7572.00" from="653473569#5" to="-104010328"/>
    <trip id="396" depart="7581.00" from="315358253#1" to="201956810"/>
    <trip id="397" depart="7592.00" from="-32978638#0" to="-24608846#1"/>
    <trip id="398" depart="7601.00" from="10425609#0" to="-266565295#5"/>
    <trip id="399" depart="7616.00" from="25145012#7" to="201956811#0"/>
    <trip id="400" depart="7620.00" from="-24693977#1" to="201956811#0"/>
    <trip id="401" depart="7621.00" from="-24693977#1" to="202070434#2"/>
    <trip id="402" depart="7627.00" from="24608846#1" to="-266565295#5"/>
    <trip id="403" depart="7645.00" from="-22716549#6" to="202070434#2"/>
    <trip id="404" depart="7653.00" from="24608846#1" to="-266565295#5"/>
    <trip id="406" depart="7673.00" from="27920078#0" to="-315358253#1"/>
    <trip id="407" depart="7674.00" from="315358253#1" to="32978638#0"/>
    <trip id="408" depart="7681.00" from="266565295#5" to="24634415"/>
    <trip id="409" depart="7682.00" from="124812856#0" to="201956810"/>
    <trip id="410" depart="7689.00" from="315358253#1" to="24634415"/>
    <trip id="411" depart="7693.00" from="27920078#0" to="-37386279"/>
    <trip id="412" depart="7694.00" from="266565295#5" to="32978638#0"/>
    <trip id="413" depart="7697.00" from="24599188#0.94" to="32978638#0"/>
    <trip id="414" depart="7705.00" from="24608846#1" to="201956820"/>
    <trip id="415" depart="7707.00" from="25145012#7" to="-653473569#5"/>
    <trip id="416" depart="7718.00" from="27920078#0" to="-104010328"/>
    <trip id="417" depart="7723.00" from="24608846#1" to="-653473569#5"/>
    <trip id="418" depart="7741.00" from="653473569#5" to="-266565295#5"/>
    <trip id="419" depart="7750.00" from="27920078#0" to="201956811#0"/>
    <trip id="420" depart="7755.00" from="27920078#0" to="201956820"/>
    <trip id="421" depart="7768.00" from="27920078#0" to="201956820"/>
    <trip id="422" depart="7787.00" from="266565295#5" to="-24608846#1"/>
    <trip id="423" depart="7792.00" from="-24693977#1" to="-266565295#5"/>
    <trip id="424" depart="7819.00" from="-32978638#0" to="202070434#2"/>
    <trip id="425" depart="7854.00" from="10425609#0" to="24634415"/>
    <trip id="426" depart="7864.00" from="-22716549#6" to="201956820"/>
    <trip id="427" depart="7866.00" from="10425609#0" to="24693977#1"/>
    <trip id="428" depart="7872.00" from="124812856#0" to="-315358253#1"/>
    <trip id="430" depart="7914.00" from="27920078#0" to="-104010328"/>
    <trip id="431" depart="7920.00" from="27920078#0" to="-653473569#5"/>
    <trip id="432" depart="7924.00" from="266565295#5" to="-24608844"/>