<?xml version="1.0" encoding="UTF-8"?>
<routes xmlns:xsi="http://www.w3.org/2001/XMLSchema-instance" xsi:noNamespaceSchemaLocation="http://sumo.dlr.de/xsd/routes_file.xsd">
	<vType id="bus" vClass="bus" color="green"/>
	<vType id="default_017" vClass="passenger" color="red"/>
    <vType id="random_017" vClass="passenger" color="red"/>
	<vType id="default_016" vClass="passenger" color="red"/>
    <vType id="random_016" vClass="passenger" color="red"/>
	<vType id="default_015" vClass="passenger" color="red"/>
    <vType id="random_015" vClass="passenger" color="red"/>
	<vType id="default_014" vClass="passenger" color="red"/>
    <vType id="random_014" vClass="passenger" color="red"/>
	<vType id="default_013" vClass="passenger" color="red"/>
    <vType id="random_013" vClass="passenger" color="red"/>
    <vType id="default_012" vClass="passenger" color="red"/>
    <vType id="random_012" vClass="passenger" color="red"/>
	<vType id="default_011" vClass="passenger" color="red"/>
    <vType id="random_011" vClass="passenger" color="red"/>
	<vType id="default_010" vClass="passenger" color="red"/>
    <vType id="random_010" vClass="passenger" color="red"/>
	<vType id="default_009" vClass="passenger" color="red"/>
    <vType id="random_009" vClass="passenger" color="red"/>
	<vType id="default_008" vClass="passenger" color="red"/>
    <vType id="random_008" vClass="passenger" color="red"/>
	<vType id="default_007" vClass="passenger" color="red"/>
    <vType id="random_007" vClass="passenger" color="red"/>
	<vType id="default_006" vClass="passenger" color="red"/>
    <vType id="random_006" vClass="passenger" color="red"/>
	<vType id="default_005" vClass="passenger" color="red"/>
    <vType id="random_005" vClass="passenger" color="red"/>
	<vType id="default_004" vClass="passenger" color="red"/>
    <vType id="random_004" vClass="passenger" color="red"/>
	<vType id="default_003" vClass="passenger" color="red"/>
    <vType id="random_003" vClass="passenger" color="red"/>
	<vType id="default_022" vClass="passenger" color="red"/>
    <vType id="random_022" vClass="passenger" color="red"/>
	<vType id="default_021" vClass="passenger" color="red"/>
    <vType id="random_021" vClass="passenger" color="red"/>
	<vType id="default_020" vClass="passenger" color="red"/>
    <vType id="random_020" vClass="passenger" color="red"/>
	<vType id="default_019" vClass="passenger" color="red"/>
    <vType id="random_019" vClass="passenger" color="red"/>
	<vType id="default_018" vClass="passenger" color="red"/>
    <vType id="random_018" vClass="passenger" color="red"/>
	<vType id="default_002" vClass="passenger" color="red"/>
    <vType id="random_002" vClass="passenger" color="red"/>
	<vType id="default_001" vClass="passenger" color="red"/>
    <vType id="random_001" vClass="passenger" color="red"/>
	<trip id="carIn105842:1" type="default_016" depart="0.19999999999708962" from="653473569#5" to="201956811#0"/>
	<trip id="carIn107084:1" type="default_016" depart="0.3000000000029104" from="124812856#0" to="-653473569#5"/>
	<trip id="carIn113711:1" type="default_016" depart="0.3000000000029104" from="-24693977#1" to="-266565295#5"/>
	<trip id="carIn79400:1" type="default_016" depart="3.900000000001455" from="-24693977#1" to="-266565295#5"/>
	<trip id="randUni10474:1" type="random_016" depart="4.80000000000291" from="124812856#0" to="-653473569#5"/>
	<trip id="carIn77943:1" type="default_016" depart="5.5" from="124812856#0" to="-653473569#5"/>
	<trip id="carIn28951:1" type="default_016" depart="5.80000000000291" from="10425609#0" to="-653473569#5"/>
	<trip id="carIn81046:1" type="default_016" depart="8.5" from="124812856#0" to="-653473569#5"/>
	<trip id="carIn28488:1" type="default_016" depart="10.19999999999709" from="653473569#5" to="201956820"/>
	<trip id="carIn89578:1" type="default_016" depart="10.400000000001455" from="124812856#0" to="201956810"/>
	<trip id="carIn96537:1" type="default_016" depart="11.19999999999709" from="124812856#0" to="202070434#2"/>
	<trip id="h15454c2:3" type="default_016" depart="11.5" from="24608844" to="32978638#0"/>
	<trip id="carIn106322:1" type="default_016" depart="11.80000000000291" from="653473569#5" to="201956811#0"/>
	<trip id="carIn77438:1" type="default_016" depart="12.900000000001455" from="124812856#0" to="-653473569#5"/>
	<trip id="carIn115641:1" type="default_016" depart="13.099999999998545" from="-24693977#1" to="-266565295#5"/>
	<trip id="carIn5482:1" type="default_016" depart="13.400000000001455" from="653473569#5" to="201956811#0"/>
	<trip id="carIn26410:1" type="default_016" depart="13.5" from="124812856#0" to="202070434#2"/>
	<trip id="carIn52610:1" type="default_016" depart="14.900000000001455" from="-24693977#1" to="-266565295#5"/>
	<trip id="h19804c1:3" type="default_016" depart="15.5" from="124812856#0" to="-653473569#5"/>
	<trip id="carIn36103:1" type="default_016" depart="16.0" from="653473569#5" to="201956811#0"/>
	<trip id="carIn51024:1" type="default_016" depart="16.099999999998545" from="124812856#0" to="202070434#2"/>
	<trip id="carIn102997:1" type="default_016" depart="18.19999999999709" from="653473569#5" to="201956811#0"/>
	<trip id="carIn128705:1" type="default_016" depart="18.400000000001455" from="124812856#0" to="202070434#2"/>
	<trip id="carIn767:1" type="default_016" depart="18.5" from="124812856#0" to="-653473569#5"/>
	<trip id="h21989c1:1" type="default_016" depart="20.400000000001455" from="124812856#0" to="202070434#2"/>
	<trip id="carIn75554:1" type="default_016" depart="20.80000000000291" from="653473569#5" to="201956811#0"/>
	<trip id="carIn107842:1" type="default_016" depart="21.099999999998545" from="124812856#0" to="-653473569#5"/>
	<trip id="carIn10158:1" type="default_016" depart="21.19999999999709" from="-24693977#1" to="-266565295#5"/>
	<trip id="h645c1:1" type="default_016" depart="21.599999999998545" from="266565295#5" to="-315358253#1"/>
	<trip id="h15382c1:3" type="default_016" depart="22.19999999999709" from="124812856#0" to="-653473569#5"/>
	<trip id="60R.41" type="bus" depart="22.69999999999709" from="27920078#0" to="201956811#0"/>
	<trip id="carIn3969:1" type="default_016" depart="23.69999999999709" from="124812856#0" to="-653473569#5"/>
	<trip id="carIn56649:1" type="default_016" depart="23.900000000001455" from="124812856#0" to="-653473569#5"/>
	<trip id="carIn13117:1" type="default_016" depart="25.19999999999709" from="27920078#0" to="201956820"/>
	<trip id="carIn38625:1" type="default_016" depart="25.5" from="124812856#0" to="-653473569#5"/>
	<trip id="h10915c2:1" type="default_016" depart="25.80000000000291" from="315358253#1" to="-653473569#5"/>
	<trip id="carIn925:1" type="default_016" depart="26.099999999998545" from="124812856#0" to="201956810"/>
	<trip id="carIn17767:1" type="default_016" depart="27.19999999999709" from="124812856#0" to="-653473569#5"/>
	<trip id="carIn20106:1" type="default_016" depart="27.30000000000291" from="27920078#0" to="201956820"/>
	<trip id="carIn25202:1" type="default_016" depart="27.5" from="315358253#1" to="32978638#0"/>
	<trip id="randUni20090:1" type="random_016" depart="28.0" from="653473569#5" to="201956811#0"/>
	<trip id="carIn64859:1" type="default_016" depart="28.400000000001455" from="124812856#0" to="-653473569#5"/>
	<trip id="carIn48979:1" type="default_016" depart="28.900000000001455" from="124812856#0" to="-653473569#5"/>
	<trip id="randUni5403:1" type="random_016" depart="29.099999999998545" from="315358253#1" to="-653473569#5"/>
	<trip id="carIn111853:1" type="default_016" depart="29.19999999999709" from="27920078#0" to="-266565295#5"/>
	<trip id="h21130c2:1" type="default_016" depart="29.900000000001455" from="10425609#0" to="202070434#2"/>
	<trip id="carIn88932:1" type="default_016" depart="30.599999999998545" from="124812856#0" to="-653473569#5"/>
	<trip id="h15353c2:1" type="default_016" depart="30.69999999999709" from="124812856#0" to="-653473569#5"/>
	<trip id="carIn114137:1" type="default_016" depart="30.900000000001455" from="27920078#0" to="-83304175#2"/>
	<trip id="carIn44740:1" type="default_016" depart="32.30000000000291" from="124812856#0" to="-653473569#5"/>
	<trip id="carIn22637:1" type="default_016" depart="32.5" from="27920078#0" to="-83304175#2"/>
	<trip id="randUni29093:1" type="random_016" depart="33.0" from="124812856#0" to="-653473569#5"/>
	<trip id="h20232c1:2" type="default_016" depart="33.5" from="-173169611#0" to="201956820"/>
	<trip id="h20540c1:1" type="default_016" depart="33.5" from="10425609#0" to="-653473569#5"/>
	<trip id="carIn64490:1" type="default_016" depart="33.900000000001455" from="124812856#0" to="-653473569#5"/>
	<trip id="randUni27349:1" type="random_016" depart="33.900000000001455" from="27920078#0" to="201956811#0"/>
	<trip id="carIn37268:1" type="default_016" depart="35.099999999998545" from="653473569#5" to="201956811#0"/>
	<trip id="carIn131078:1" type="default_016" depart="35.400000000001455" from="124812856#0" to="201956810"/>
	<trip id="h20403c1:5" type="default_016" depart="35.400000000001455" from="27920078#0" to="201956811#0"/>
	<trip id="carIn13362:1" type="default_016" depart="35.599999999998545" from="124812856#0" to="-653473569#5"/>
	<trip id="carIn73466:1" type="default_016" depart="36.900000000001455" from="27920078#0" to="201956811#0"/>
	<trip id="carIn99385:1" type="default_016" depart="37.099999999998545" from="124812856#0" to="-653473569#5"/>
	<trip id="carIn11547:1" type="default_016" depart="37.69999999999709" from="124812856#0" to="-653473569#5"/>
	<trip id="h19699c1:3" type="default_016" depart="38.400000000001455" from="27920078#0" to="-266565295#5"/>
	<trip id="carIn100220:1" type="default_016" depart="39.0" from="124812856#0" to="202070434#2"/>
	<trip id="h18569c2:1" type="default_016" depart="40.0" from="27920078#0" to="-266565295#5"/>
	<trip id="carIn25314:1" type="default_016" depart="40.19999999999709" from="124812856#0" to="-653473569#5"/>
	<trip id="60.39" type="bus" depart="42.5" from="10425609#0" to="202070434#2"/>
	<trip id="carIn32621:1" type="default_016" depart="43.0" from="124812856#0" to="-653473569#5"/>
	<trip id="carIn12152:1" type="default_016" depart="46.5" from="24599188#0.94" to="24693977#1"/>
	<trip id="carIn12900:1" type="default_016" depart="48.19999999999709" from="124812856#0" to="201956810"/>
	<trip id="carIn55461:1" type="default_016" depart="51.69999999999709" from="10425609#0" to="201956810"/>
	<trip id="h3568c1:3" type="default_016" depart="55.19999999999709" from="266565295#5" to="-24634415"/>
	<trip id="h5292c2:1" type="default_016" depart="56.0" from="-24693977#1" to="-266565295#5"/>
	<trip id="h2215c1:1" type="default_016" depart="56.099999999998545" from="25145012#7" to="201956811#0"/>
	<trip id="carIn106665:1" type="default_016" depart="57.19999999999709" from="266565295#5" to="24693977#1"/>
	<trip id="carIn129760:1" type="default_016" depart="60.19999999999709" from="653473569#5" to="201956811#0"/>
	<trip id="carIn7887:1" type="default_016" depart="60.5" from="27920078#0" to="-83304175#2"/>
	<trip id="carIn129626:1" type="default_016" depart="62.400000000001455" from="653473569#5" to="201956811#0"/>
	<trip id="carIn124416:1" type="default_016" depart="62.5" from="-173169611#0" to="201956820"/>
	<trip id="carIn55090:1" type="default_016" depart="64.59999999999854" from="-173169611#0" to="201956820"/>
	<trip id="h20539c1:3" type="default_016" depart="64.80000000000291" from="653473569#5" to="201956811#0"/>
	<trip id="carIn102740:1" type="default_016" depart="67.0" from="25145012#7" to="201956811#0"/>
	<trip id="carIn35345:1" type="default_016" depart="68.59999999999854" from="25145012#7" to="201956811#0"/>
	<trip id="carIn33538:1" type="default_016" depart="70.69999999999709" from="37386279" to="-24634414#4"/>
	<trip id="carIn26407:1" type="default_016" depart="72.5" from="25145012#7" to="201956811#0"/>
	<trip id="carIn21160:1" type="default_016" depart="73.90000000000146" from="-24693977#1" to="-266565295#5"/>
	<trip id="carIn12775:1" type="default_016" depart="75.40000000000146" from="10425609#0" to="-653473569#5"/>
	<trip id="carIn90263:1" type="default_016" depart="76.40000000000146" from="-24693977#1" to="-266565295#5"/>
	<trip id="h3688c1:1" type="default_016" depart="78.5" from="315358253#1" to="32978638#0"/>
	<trip id="h3154c1:1" type="default_016" depart="80.59999999999854" from="-24693977#1" to="-266565295#5"/>
	<trip id="h9878c1:3" type="default_016" depart="85.30000000000291" from="-24693977#1" to="32978638#0"/>
	<trip id="carIn78692:1" type="default_016" depart="93.5" from="25145012#7" to="201956811#0"/>
	<trip id="carIn91254:1" type="default_016" depart="95.90000000000146" from="653473569#5" to="201956811#0"/>
	<trip id="h9894c1:3" type="default_016" depart="97.80000000000291" from="-24693977#1" to="32978638#0"/>
	<trip id="carIn96193:1" type="default_016" depart="104.40000000000146" from="25145012#7" to="201956811#0"/>
	<trip id="carIn98489:1" type="default_016" depart="106.90000000000146" from="25145012#7" to="201956811#0"/>
	<trip id="h317c2:1" type="default_016" depart="106.90000000000146" from="-32978638#0" to="-266565295#5"/>
	<trip id="carIn68826:1" type="default_016" depart="111.0" from="266565295#5" to="202070434#2"/>
	<trip id="h11849c2:1" type="default_016" depart="111.0" from="266565295#5" to="202070434#2"/>
	<trip id="carIn44477:1" type="default_016" depart="111.30000000000291" from="27920078#0" to="-266565295#5"/>
	<trip id="carIn92532:1" type="default_016" depart="112.5" from="266565295#5" to="-653473569#5"/>
	<trip id="carIn106325:1" type="default_016" depart="112.90000000000146" from="27920078#0" to="-83304175#2"/>
	<trip id="carIn57508:1" type="default_016" depart="114.59999999999854" from="27920078#0" to="-266565295#5"/>
	<trip id="carIn124439:1" type="default_016" depart="116.19999999999709" from="27920078#0" to="-266565295#5"/>
	<trip id="carIn99738:1" type="default_016" depart="117.69999999999709" from="27920078#0" to="-83304175#2"/>
	<trip id="randUni22709:1" type="random_016" depart="117.80000000000291" from="315358253#1" to="32978638#0"/>
	<trip id="h4745c1:1" type="default_016" depart="117.80000000000291" from="25145012#7" to="201956811#0"/>
	<trip id="h134c1:3" type="default_016" depart="119.40000000000146" from="315358253#1" to="32978638#0"/>
	<trip id="carIn112789:1" type="default_016" depart="119.40000000000146" from="27920078#0" to="-266565295#5"/>
	<trip id="carIn99509:1" type="default_015" depart="119.80000000000291" from="-32978638#0" to="-315358253#1"/>
	<trip id="carIn74045:1" type="default_016" depart="121.0" from="315358253#1" to="32978638#0"/>
	<trip id="carIn103916:1" type="default_016" depart="121.09999999999854" from="27920078#0" to="-266565295#5"/>
	<trip id="h21189c1:3" type="default_016" depart="121.90000000000146" from="10425609#0" to="202070434#2"/>
	<trip id="carIn33467:1" type="default_016" depart="123.0" from="-24693977#1" to="32978638#0"/>
	<trip id="carIn70484:1" type="default_016" depart="123.40000000000146" from="653473569#5" to="-266565295#5"/>
	<trip id="carIn87464:1" type="default_016" depart="124.69999999999709" from="-24693977#1" to="-266565295#5"/>
	<trip id="carIn106797:1" type="default_016" depart="125.0" from="653473569#5" to="201956811#0"/>
	<trip id="carIn26708:1" type="default_016" depart="126.59999999999854" from="653473569#5" to="201956811#0"/>
	<trip id="carIn124270:1" type="default_016" depart="127.40000000000146" from="25145012#7" to="201956811#0"/>
	<trip id="carIn48988:1" type="default_016" depart="128.09999999999854" from="653473569#5" to="-266565295#5"/>
	<trip id="h19989c1:1" type="default_016" depart="129.40000000000146" from="10425609#0" to="-653473569#5"/>
	<trip id="carIn34550:1" type="default_016" depart="130.40000000000146" from="653473569#5" to="201956811#0"/>
	<trip id="carIn92858:1" type="default_016" depart="132.1999999999971" from="10425609#0" to="-653473569#5"/>
	<trip id="carIn41791:1" type="default_016" depart="132.1999999999971" from="653473569#5" to="201956811#0"/>
	<trip id="carIn101439:1" type="default_016" depart="134.3000000000029" from="10425609#0" to="-653473569#5"/>
	<trip id="carIn13016:1" type="default_016" depart="135.5" from="653473569#5" to="201956811#0"/>
	<trip id="h330c1:1" type="default_016" depart="135.8000000000029" from="-32978638#0" to="-266565295#5"/>
	<trip id="carIn84229:1" type="default_016" depart="136.8000000000029" from="10425609#0" to="-653473569#5"/>
	<trip id="carIn70477:1" type="default_016" depart="137.8000000000029" from="653473569#5" to="201956811#0"/>
	<trip id="carIn129628:1" type="default_016" depart="138.5" from="24599188#0.94" to="24693977#1"/>
	<trip id="carIn61538:1" type="default_016" depart="138.6999999999971" from="27920078#0" to="-266565295#5"/>
	<trip id="11_frequency1.42" type="bus" depart="138.6999999999971" from="315358253#1" to="32978638#0"/>
	<trip id="randUni26227:1" type="random_016" depart="140.5" from="653473569#5" to="201956811#0"/>
	<trip id="carIn98605:1" type="default_016" depart="140.8000000000029" from="315358253#1" to="32978638#0"/>
	<trip id="carIn7365:1" type="default_016" depart="141.3000000000029" from="10425609#0" to="202070434#2"/>
	<trip id="h319c1:3" type="default_016" depart="142.3000000000029" from="315358253#1" to="32978638#0"/>
	<trip id="h10591c1:1" type="default_016" depart="142.40000000000146" from="266565295#5" to="-653473569#5"/>
	<trip id="h7328c1:1" type="default_016" depart="142.40000000000146" from="-24693977#1" to="201956820"/>
	<trip id="h13760c1:1" type="default_016" depart="142.90000000000146" from="266565295#5" to="24693977#1"/>
	<trip id="carIn42651:1" type="default_016" depart="143.09999999999854" from="25145012#7" to="201956820"/>
	<trip id="carIn16842:1" type="default_016" depart="143.59999999999854" from="10425609#0" to="-653473569#5"/>
	<trip id="h5925c1:1" type="default_016" depart="143.8000000000029" from="315358253#1" to="202070434#2"/>
	<trip id="h18300c2:1" type="default_016" depart="144.6999999999971" from="25145012#7" to="201956811#0"/>
	<trip id="carIn107250:1" type="default_016" depart="145.3000000000029" from="315358253#1" to="32978638#0"/>
	<trip id="carIn75079:1" type="default_016" depart="146.40000000000146" from="-173169611#0" to="201956820"/>
	<trip id="randUni14624:1" type="random_016" depart="147.0" from="315358253#1" to="-653473569#5"/>
	<trip id="h14316c1:3" type="default_016" depart="149.0" from="315358253#1" to="32978638#0"/>
	<trip id="carIn24735:1" type="default_016" depart="149.6999999999971" from="266565295#5" to="24693977#1"/>
	<trip id="carIn24709:1" type="default_016" depart="150.5" from="266565295#5" to="24693977#1"/>
	<trip id="carIn77243:1" type="default_016" depart="151.8000000000029" from="266565295#5" to="202070434#2"/>
	<trip id="carIn95310:1" type="default_016" depart="152.5" from="27920078#0" to="-83304175#2"/>
	<trip id="carIn27994:1" type="default_016" depart="154.1999999999971" from="27920078#0" to="-266565295#5"/>
	<trip id="carIn40211:1" type="default_016" depart="156.0" from="27920078#0" to="-83304175#2"/>
	<trip id="carIn117869:1" type="default_016" depart="157.40000000000146" from="-32978638#0" to="-315358253#1"/>
	<trip id="h2108c1:1" type="default_016" depart="158.0" from="27920078#0" to="-315358253#1"/>
	<trip id="carIn115169:1" type="default_016" depart="158.5" from="24599188#0.94" to="24693977#1"/>
	<trip id="carIn27323:1" type="default_016" depart="160.5" from="24599188#0.94" to="24693977#1"/>
	<trip id="h9873c2:1" type="default_016" depart="165.40000000000146" from="-32978638#0" to="202070434#2"/>
	<trip id="carIn106296:1" type="default_016" depart="167.0" from="124812856#0" to="-653473569#5"/>
	<trip id="carIn86816:1" type="default_016" depart="168.3000000000029" from="653473569#5" to="201956811#0"/>
	<trip id="carIn104643:1" type="default_016" depart="173.5" from="124812856#0" to="-653473569#5"/>
	<trip id="carIn42216:1" type="default_016" depart="173.90000000000146" from="-173169611#0" to="201956820"/>
	<trip id="carIn7631:1" type="default_016" depart="185.3000000000029" from="-32978638#0" to="-315358253#1"/>
	<trip id="carIn79321:1" type="default_016" depart="185.59999999999854" from="-24693977#1" to="-266565295#5"/>
	<trip id="carIn84825:1" type="default_016" depart="187.1999999999971" from="-24693977#1" to="-266565295#5"/>
	<trip id="h19105c2:3" type="default_016" depart="194.40000000000146" from="10425609#0" to="-653473569#5"/>
	<trip id="carIn71528:1" type="default_016" depart="197.09999999999854" from="-24693977#1" to="-266565295#5"/>
	<trip id="carIn41197:1" type="default_016" depart="197.3000000000029" from="25145012#7" to="201956820"/>
	<trip id="carIn48068:1" type="default_016" depart="198.1999999999971" from="27920078#0" to="-83304175#2"/>
	<trip id="carIn60437:1" type="default_016" depart="199.6999999999971" from="27920078#0" to="-83304175#2"/>
	<trip id="carIn86381:1" type="default_016" depart="200.8000000000029" from="266565295#5" to="202070434#2"/>
	<trip id="carIn32135:1" type="default_016" depart="201.1999999999971" from="27920078#0" to="201956811#0"/>
	<trip id="carIn57377:1" type="default_016" depart="201.6999999999971" from="266565295#5" to="202070434#2"/>
	<trip id="carIn46110:1" type="default_016" depart="203.59999999999854" from="315358253#1" to="32978638#0"/>
	<trip id="carIn47486:1" type="default_016" depart="204.3000000000029" from="266565295#5" to="202070434#2"/>
	<trip id="h6541c1:3" type="default_016" depart="206.40000000000146" from="315358253#1" to="32978638#0"/>
	<trip id="carIn102915:1" type="default_016" depart="210.09999999999854" from="653473569#5" to="201956811#0"/>
	<trip id="randUni33724:1" type="random_016" depart="211.8000000000029" from="653473569#5" to="201956811#0"/>
	<trip id="carIn100288:1" type="default_016" depart="212.3000000000029" from="25145012#7" to="201956811#0"/>
	<trip id="randUni31145:1" type="random_016" depart="213.6999999999971" from="10425609#0" to="201956810"/>
	<trip id="carIn29531:1" type="default_016" depart="216.59999999999854" from="25145012#7" to="201956811#0"/>
	<trip id="carIn2912:1" type="default_016" depart="218.1999999999971" from="25145012#7" to="201956811#0"/>
	<trip id="carIn9810:1" type="default_016" depart="219.1999999999971" from="315358253#1" to="32978638#0"/>
	<trip id="randUni2407:1" type="random_016" depart="219.1999999999971" from="10425609#0" to="201956810"/>
	<trip id="carIn49437:1" type="default_016" depart="219.6999999999971" from="25145012#7" to="201956811#0"/>
	<trip id="carIn114105:1" type="default_016" depart="220.8000000000029" from="10425609#0" to="-653473569#5"/>
	<trip id="h5170c2:1" type="default_016" depart="225.0" from="-24693977#1" to="-266565295#5"/>
	<trip id="carIn72316:1" type="default_016" depart="225.5" from="10425609#0" to="-653473569#5"/>
	<trip id="h2483c1:1" type="default_016" depart="226.5" from="-24693977#1" to="201956820"/>
	<trip id="carIn82399:1" type="default_016" depart="227.3000000000029" from="10425609#0" to="202070434#2"/>
	<trip id="h18996c2:1" type="default_016" depart="229.0" from="25145012#7" to="201956820"/>
	<trip id="randUni6170:1" type="random_016" depart="234.8000000000029" from="10425609#0" to="202070434#2"/>
	<trip id="h3536c1:1" type="default_016" depart="235.1999999999971" from="315358253#1" to="32978638#0"/>
	<trip id="carIn70936:1" type="default_016" depart="237.90000000000146" from="24599188#0.94" to="24693977#1"/>
	<trip id="h8222c1:5" type="default_016" depart="238.09999999999854" from="266565295#5" to="24693977#1"/>
	<trip id="carIn36687:1" type="default_016" depart="239.90000000000146" from="24599188#0.94" to="24693977#1"/>
	<trip id="carIn105694:1" type="default_016" depart="240.09999999999854" from="266565295#5" to="202070434#2"/>
	<trip id="h15564c1:1" type="default_016" depart="242.5" from="10425609#0" to="202070434#2"/>
	<trip id="carIn32833:1" type="default_016" depart="243.59999999999854" from="24599188#0.94" to="24693977#1"/>
	<trip id="h13318c2:1" type="default_016" depart="243.59999999999854" from="-32978638#0" to="202070434#2"/>
	<trip id="carIn116805:1" type="default_016" depart="244.0" from="266565295#5" to="-653473569#5"/>
	<trip id="carIn20174:1" type="default_016" depart="245.1999999999971" from="-32978638#0" to="24693977#1"/>
	<trip id="carIn2162:1" type="default_016" depart="246.8000000000029" from="-32978638#0" to="24693977#1"/>
	<trip id="h2997c2:1" type="default_016" depart="248.40000000000146" from="27920078#0" to="-83304175#2"/>
	<trip id="carIn83006:1" type="default_016" depart="248.5" from="-32978638#0" to="24693977#1"/>
	<trip id="carIn101921:1" type="default_016" depart="250.09999999999854" from="-32978638#0" to="-315358253#1"/>
	<trip id="h7759c1:3" type="default_016" depart="251.8000000000029" from="-32978638#0" to="-315358253#1"/>
	<trip id="h8633c1:3" type="default_016" depart="253.0" from="-24693977#1" to="201956820"/>
	<trip id="carIn120813:1" type="default_016" depart="255.59999999999854" from="24599188#0.94" to="24693977#1"/>
	<trip id="carIn64958:1" type="default_016" depart="256.40000000000146" from="10425609#0" to="-653473569#5"/>
	<trip id="carIn103052:1" type="default_016" depart="258.09999999999854" from="124812856#0" to="201956810"/>
	<trip id="50R_frequency3.17" type="bus" depart="260.90000000000146" from="653473569#5" to="201956811#0"/>
	<trip id="h13311c1:3" type="default_016" depart="261.0" from="315358253#1" to="32978638#0"/>
	<trip id="randUni24217:1" type="random_016" depart="261.1999999999971" from="124812856#0" to="-653473569#5"/>
	<trip id="h18601c1:3" type="default_016" depart="263.09999999999854" from="653473569#5" to="201956811#0"/>
	<trip id="randUni13258:1" type="random_016" depart="263.59999999999854" from="-173169611#0" to="-315358253#1"/>
	<trip id="carIn133015:1" type="default_016" depart="264.0" from="10425609#0" to="-653473569#5"/>
	<trip id="carIn88912:1" type="default_016" depart="266.8000000000029" from="-32978638#0" to="-315358253#1"/>
	<trip id="carIn126072:1" type="default_016" depart="269.1999999999971" from="315358253#1" to="32978638#0"/>
	<trip id="randUni33912:1" type="random_016" depart="273.0" from="-22716549#6" to="202070434#2"/>
	<trip id="carIn27352:1" type="default_016" depart="278.1999999999971" from="124812856#0" to="201956810"/>
	<trip id="h19571c2:3" type="default_016" depart="281.6999999999971" from="10425609#0" to="-653473569#5"/>
	<trip id="carIn75793:1" type="default_016" depart="283.1999999999971" from="653473569#5" to="-83304175#2"/>
	<trip id="randUni23028:1" type="random_016" depart="283.90000000000146" from="124812856#0" to="201956810"/>
	<trip id="carIn69046:1" type="default_016" depart="286.59999999999854" from="-32978638#0" to="-315358253#1"/>
	<trip id="h21699c2:1" type="default_016" depart="288.09999999999854" from="-32978638#0" to="-315358253#1"/>
	<trip id="h2767c1:1" type="default_016" depart="288.3000000000029" from="27920078#0" to="-315358253#1"/>
	<trip id="h18868c2:3" type="default_016" depart="289.59999999999854" from="-32978638#0" to="24693977#1"/>
	<trip id="carIn44541:1" type="default_016" depart="290.1999999999971" from="27920078#0" to="-83304175#2"/>
	<trip id="h16888c2:1" type="default_016" depart="292.0" from="266565295#5" to="24693977#1"/>
	<trip id="h17890c1:3" type="default_016" depart="292.09999999999854" from="315358253#1" to="32978638#0"/>
	<trip id="carIn82741:1" type="default_016" depart="292.90000000000146" from="25145012#7" to="201956820"/>
	<trip id="h22816c2:3" type="default_016" depart="295.3000000000029" from="315358253#1" to="201956820"/>
	<trip id="h19249c2:1" type="default_016" depart="297.59999999999854" from="25145012#7" to="201956820"/>
	<trip id="h4784c1:3" type="default_016" depart="298.90000000000146" from="315358253#1" to="32978638#0"/>
	<trip id="h21872c1:1" type="default_016" depart="300.3000000000029" from="-32978638#0" to="-315358253#1"/>
	<trip id="carIn41236:1" type="default_016" depart="301.90000000000146" from="-32978638#0" to="-315358253#1"/>
	<trip id="carIn48137:1" type="default_016" depart="302.8000000000029" from="315358253#1" to="32978638#0"/>
	<trip id="carIn125694:1" type="default_016" depart="303.6999999999971" from="25145012#7" to="201956820"/>
	<trip id="10R_frequency1.41" type="bus" depart="305.40000000000146" from="-32978638#0" to="24693977#1"/>
	<trip id="h17593c1:1" type="default_016" depart="306.09999999999854" from="10425609#0" to="-653473569#5"/>
	<trip id="h3847c1:3" type="default_016" depart="306.59999999999854" from="315358253#1" to="32978638#0"/>
	<trip id="carIn101809:1" type="default_016" depart="307.40000000000146" from="-32978638#0" to="-315358253#1"/>
	<trip id="carIn88487:1" type="default_016" depart="309.1999999999971" from="-32978638#0" to="-315358253#1"/>
	<trip id="randUni16001:1" type="random_016" depart="311.6999999999971" from="10425609#0" to="201956810"/>
	<trip id="carIn127305:1" type="default_016" depart="314.59999999999854" from="-173169611#0" to="201956820"/>
	<trip id="randUni26693:1" type="random_016" depart="323.3000000000029" from="266565295#5" to="24693977#1"/>
	<trip id="carIn39047:1" type="default_016" depart="326.59999999999854" from="266565295#5" to="24693977#1"/>
	<trip id="h21908c1:3" type="default_016" depart="326.8000000000029" from="-24693977#1" to="201956820"/>
	<trip id="h15472c1:3" type="default_016" depart="328.40000000000146" from="-24693977#1" to="201956820"/>
	<trip id="h17086c2:1" type="default_016" depart="329.1999999999971" from="266565295#5" to="24693977#1"/>
	<trip id="h19505c1:1" type="default_016" depart="329.6999999999971" from="315358253#1" to="32978638#0"/>
	<trip id="carIn79443:1" type="default_016" depart="330.3000000000029" from="266565295#5" to="202070434#2"/>
	<trip id="carIn92490:1" type="default_016" depart="330.6999999999971" from="266565295#5" to="24693977#1"/>
	<trip id="h13562c1:1" type="default_016" depart="331.59999999999854" from="-32978638#0" to="24693977#1"/>
	<trip id="carIn92238:1" type="default_016" depart="335.59999999999854" from="-32978638#0" to="-315358253#1"/>