<?xml version="1.0" encoding="UTF-8"?>

<!-- generated on 2023-09-06 12:07:37 by Eclipse SUMO netedit Version 1.16.0
<configuration xmlns:xsi="http://www.w3.org/2001/XMLSchema-instance" xsi:noNamespaceSchemaLocation="http://sumo.dlr.de/xsd/netconvertConfiguration.xsd">

    <input>
        <sumocfg-file value="C:\Program Files (x86)\Eclipse\Sumo\Single.sumocfg"/>
        <sumo-net-file value="C:\Program Files (x86)\Eclipse\Sumo\Single.net.xml"/>
    </input>

    <output>
        <output-file value="C:\Program Files (x86)\Eclipse\Sumo\Single.net.xml"/>
    </output>

    <processing>
        <geometry.min-radius.fix.railways value="false"/>
        <geometry.max-grade.fix value="false"/>
        <offset.disable-normalization value="true"/>
        <lefthand value="0"/>
    </processing>

    <junctions>
        <no-turnarounds value="true"/>
        <junctions.corner-detail value="5"/>
        <junctions.limit-turn-speed value="5.50"/>
        <rectangular-lane-cut value="0"/>
    </junctions>

    <pedestrian>
        <walkingareas value="0"/>
    </pedestrian>

</configuration>
-->

<net version="1.16" junctionCornerDetail="5" limitTurnSpeed="5.50" xmlns:xsi="http://www.w3.org/2001/XMLSchema-instance" xsi:noNamespaceSchemaLocation="http://sumo.dlr.de/xsd/net_file.xsd">

    <location netOffset="0.00,0.00" convBoundary="-18.20,13.78,84.51,94.82" origBoundary="-10000000000.00,-10000000000.00,10000000000.00,10000000000.00" projParameter="!"/>

    <edge id=":J1_0" function="internal">
        <lane id=":J1_0_0" index="0" speed="7.42" length="11.94" shape="45.84,63.92 41.89,64.28 39.07,65.33 37.36,67.08 36.77,69.52"/>
    </edge>
    <edge id=":J1_1" function="internal">
        <lane id=":J1_1_0" index="0" speed="13.89" length="27.61" shape="45.84,63.92 37.15,63.43 30.73,62.32 25.01,61.18 18.46,60.62"/>
        <lane id=":J1_1_1" index="1" speed="13.89" length="27.61" shape="45.83,60.72 37.16,60.23 30.74,59.12 25.04,57.98 18.49,57.42"/>
    </edge>
    <edge id=":J1_3" function="internal">
        <lane id=":J1_3_0" index="0" speed="10.29" length="7.24" shape="45.83,57.52 39.13,56.59 38.72,56.34"/>
    </edge>
    <edge id=":J1_16" function="internal">
        <lane id=":J1_16_0" index="0" speed="10.29" length="17.26" shape="38.72,56.34 34.37,53.75 31.57,49.01 30.73,42.37"/>
    </edge>
    <edge id=":J1_4" function="internal">
        <lane id=":J1_4_0" index="0" speed="7.22" length="11.52" shape="40.32,42.53 40.61,46.29 41.62,48.98 43.36,50.59 45.81,51.12"/>
    </edge>
    <edge id=":J1_5" function="internal">
        <lane id=":J1_5_0" index="0" speed="13.89" length="27.28" shape="40.32,42.53 39.69,51.08 38.50,57.38 37.34,63.00 36.77,69.52"/>
        <lane id=":J1_5_1" index="1" speed="13.89" length="27.28" shape="37.12,42.48 36.49,51.04 35.30,57.34 34.14,62.97 33.57,69.49"/>
    </edge>
    <edge id=":J1_7" function="internal">
        <lane id=":J1_7_0" index="0" speed="10.39" length="7.13" shape="33.92,42.42 32.87,49.04 32.64,49.41"/>
    </edge>
    <edge id=":J1_17" function="internal">
        <lane id=":J1_17_0" index="0" speed="10.39" length="17.38" shape="32.64,49.41 29.94,53.74 25.15,56.54 18.49,57.42"/>
    </edge>
    <edge id=":J1_8" function="internal">
        <lane id=":J1_8_0" index="0" speed="7.36" length="11.79" shape="18.58,47.82 22.46,47.51 25.24,46.49 26.93,44.76 27.53,42.32"/>
    </edge>
    <edge id=":J1_9" function="internal">
        <lane id=":J1_9_0" index="0" speed="13.89" length="27.50" shape="18.58,47.82 27.21,48.40 33.59,49.53 39.27,50.63 45.81,51.12"/>
        <lane id=":J1_9_1" index="1" speed="13.89" length="27.50" shape="18.55,51.02 27.20,51.60 33.58,52.73 39.27,53.83 45.82,54.32"/>
    </edge>
    <edge id=":J1_11" function="internal">
        <lane id=":J1_11_0" index="0" speed="10.35" length="7.16" shape="18.52,54.22 25.16,55.23 25.53,55.46"/>
    </edge>
    <edge id=":J1_18" function="internal">
        <lane id=":J1_18_0" index="0" speed="10.35" length="17.30" shape="25.53,55.46 29.88,58.11 32.69,62.86 33.57,69.49"/>
    </edge>
    <edge id=":J1_12" function="internal">
        <lane id=":J1_12_0" index="0" speed="7.31" length="11.66" shape="23.98,69.40 23.66,65.58 22.64,62.84 20.90,61.19 18.46,60.62"/>
    </edge>
    <edge id=":J1_13" function="internal">
        <lane id=":J1_13_0" index="0" speed="13.89" length="27.35" shape="23.98,69.40 24.56,60.81 25.74,54.49 26.92,48.85 27.53,42.32"/>
        <lane id=":J1_13_1" index="1" speed="13.89" length="27.35" shape="27.17,69.43 27.76,60.85 28.94,54.53 30.12,48.90 30.73,42.37"/>
    </edge>
    <edge id=":J1_15" function="internal">
        <lane id=":J1_15_0" index="0" speed="10.43" length="7.10" shape="30.37,69.46 31.39,62.85 31.61,62.50"/>
    </edge>
    <edge id=":J1_19" function="internal">
        <lane id=":J1_19_0" index="0" speed="10.43" length="17.50" shape="31.61,62.50 34.31,58.12 39.11,55.28 45.82,54.32"/>
    </edge>

    <edge id="-E0" from="J1" to="J0" priority="-1">
        <lane id="-E0_0" index="0" speed="13.89" length="36.70" shape="18.46,60.62 -18.24,60.28"/>
        <lane id="-E0_1" index="1" speed="13.89" length="36.70" shape="18.49,57.42 -18.21,57.08"/>
    </edge>
    <edge id="-E1" from="J2" to="J1" priority="-1">
        <lane id="-E1_0" index="0" speed="13.89" length="38.69" shape="84.53,63.83 45.84,63.92"/>
        <lane id="-E1_1" index="1" speed="13.89" length="38.69" shape="84.52,60.63 45.83,60.72"/>
        <lane id="-E1_2" index="2" speed="13.89" length="38.69" shape="84.51,57.43 45.83,57.52"/>
    </edge>
    <edge id="-E2" from="J3" to="J1" priority="-1">
        <lane id="-E2_0" index="0" speed="13.89" length="28.62" shape="40.80,13.91 40.32,42.53"/>
        <lane id="-E2_1" index="1" speed="13.89" length="28.62" shape="37.60,13.86 37.12,42.48"/>
        <lane id="-E2_2" index="2" speed="13.89" length="28.62" shape="34.40,13.81 33.92,42.42"/>
    </edge>
    <edge id="-E3" from="J4" to="J1" priority="-1">
        <lane id="-E3_0" index="0" speed="13.89" length="25.34" shape="23.74,94.75 23.98,69.40"/>
        <lane id="-E3_1" index="1" speed="13.89" length="25.34" shape="26.94,94.78 27.17,69.43"/>
        <lane id="-E3_2" index="2" speed="13.89" length="25.34" shape="30.14,94.81 30.37,69.46"/>
    </edge>
    <edge id="E0" from="J0" to="J1" priority="-1">
        <lane id="E0_0" index="0" speed="13.89" length="36.70" shape="-18.13,47.48 18.58,47.82"/>
        <lane id="E0_1" index="1" speed="13.89" length="36.70" shape="-18.16,50.68 18.55,51.02"/>
        <lane id="E0_2" index="2" speed="13.89" length="36.70" shape="-18.19,53.88 18.52,54.22"/>
    </edge>
    <edge id="E1" from="J1" to="J2" priority="-1">
        <lane id="E1_0" index="0" speed="13.89" length="38.69" shape="45.81,51.12 84.50,51.03"/>
        <lane id="E1_1" index="1" speed="13.89" length="38.69" shape="45.82,54.32 84.51,54.23"/>
    </edge>
    <edge id="E2" from="J1" to="J3" priority="-1">
        <lane id="E2_0" index="0" speed="13.89" length="28.62" shape="27.53,42.32 28.00,13.70"/>
        <lane id="E2_1" index="1" speed="13.89" length="28.62" shape="30.73,42.37 31.20,13.75"/>
    </edge>
    <edge id="E3" from="J1" to="J4" priority="-1">
        <lane id="E3_0" index="0" speed="13.89" length="25.34" shape="36.77,69.52 36.54,94.86"/>
        <lane id="E3_1" index="1" speed="13.89" length="25.34" shape="33.57,69.49 33.34,94.83"/>
    </edge>

    <tlLogic id="J1" type="static" programID="0" offset="0">
        <phase duration="33" state="rrrrGGGgrrrrGGGg"/>
        <phase duration="3"  state="rrrryyygrrrryyyg"/>
        <phase duration="6"  state="rrrrrrrGrrrrrrrG"/>
        <phase duration="3"  state="rrrrrrryrrrrrrry"/>
        <phase duration="33" state="GGGgrrrrGGGgrrrr"/>
        <phase duration="3"  state="yyygrrrryyygrrrr"/>
        <phase duration="6"  state="rrrGrrrrrrrGrrrr"/>
        <phase duration="3"  state="rrryrrrrrrryrrrr"/>
    </tlLogic>

    <junction id="J0" type="dead_end" x="-18.20" y="55.48" incLanes="-E0_0 -E0_1" intLanes="" shape="-18.20,55.48 -18.26,61.88 -18.20,55.48"/>
    <junction id="J1" type="traffic_light" x="32.10" y="55.95" incLanes="-E1_0 -E1_1 -E1_2 -E2_0 -E2_1 -E2_2 E0_0 E0_1 E0_2 -E3_0 -E3_1 -E3_2" intLanes=":J1_0_0 :J1_1_0 :J1_1_1 :J1_16_0 :J1_4_0 :J1_5_0 :J1_5_1 :J1_17_0 :J1_8_0 :J1_9_0 :J1_9_1 :J1_18_0 :J1_12_0 :J1_13_0 :J1_13_1 :J1_19_0" shape="45.84,65.52 45.81,49.52 43.60,48.75 42.84,47.78 42.30,46.43 42.00,44.69 41.92,42.56 25.93,42.29 25.08,44.51 24.06,45.27 22.64,45.82 20.81,46.13 18.59,46.22 18.44,62.22 20.66,63.04 21.42,64.03 21.97,65.42 22.28,67.21 22.38,69.39 38.37,69.54 39.22,67.31 40.26,66.53 41.71,65.97 43.57,65.63">
        <request index="0"  response="0000000001100000" foes="0000000001100000" cont="0"/>
        <request index="1"  response="1111000011100000" foes="1111100011100000" cont="0"/>
        <request index="2"  response="1111000011100000" foes="1111100011100000" cont="0"/>
        <request index="3"  response="1110011011100000" foes="1110011011100000" cont="1"/>
        <request index="4"  response="0000000000000000" foes="0000011000000000" cont="0"/>
        <request index="5"  response="0000100000001000" foes="1000111000001111" cont="0"/>
        <request index="6"  response="0000100000001000" foes="1000111000001111" cont="0"/>
        <request index="7"  response="0110100000001000" foes="0110111000001110" cont="1"/>
        <request index="8"  response="0110000000000000" foes="0110000000000000" cont="0"/>
        <request index="9"  response="1110000011110000" foes="1110000011111000" cont="0"/>
        <request index="10" response="1110000011110000" foes="1110000011111000" cont="0"/>
        <request index="11" response="1110000011100110" foes="1110000011100110" cont="1"/>
        <request index="12" response="0000000000000000" foes="0000000000000110" cont="0"/>
        <request index="13" response="0000100000001000" foes="0000111110001110" cont="0"/>
        <request index="14" response="0000100000001000" foes="0000111110001110" cont="0"/>
        <request index="15" response="0000100001101000" foes="0000111001101110" cont="1"/>
    </junction>
    <junction id="J2" type="dead_end" x="84.51" y="55.83" incLanes="E1_0 E1_1" intLanes="" shape="84.51,55.83 84.50,49.43 84.51,55.83"/>
    <junction id="J3" type="dead_end" x="32.80" y="13.78" incLanes="E2_0 E2_1" intLanes="" shape="32.80,13.78 26.40,13.67 32.80,13.78"/>
    <junction id="J4" type="dead_end" x="31.74" y="94.82" incLanes="E3_0 E3_1" intLanes="" shape="31.74,94.82 38.14,94.88 31.74,94.82"/>

    <junction id=":J1_16_0" type="internal" x="38.72" y="56.34" incLanes=":J1_3_0 E0_0 E0_1" intLanes=":J1_5_0 :J1_5_1 :J1_7_0 :J1_8_0 :J1_9_0 :J1_9_1 :J1_13_0 :J1_13_1 :J1_15_0"/>
    <junction id=":J1_17_0" type="internal" x="32.64" y="49.41" incLanes=":J1_7_0 -E3_0 -E3_1" intLanes=":J1_1_0 :J1_1_1 :J1_3_0 :J1_9_0 :J1_9_1 :J1_11_0 :J1_12_0 :J1_13_0 :J1_13_1"/>
    <junction id=":J1_18_0" type="internal" x="25.53" y="55.46" incLanes=":J1_11_0 -E1_0 -E1_1" intLanes=":J1_0_0 :J1_1_0 :J1_1_1 :J1_5_0 :J1_5_1 :J1_7_0 :J1_13_0 :J1_13_1 :J1_15_0"/>
    <junction id=":J1_19_0" type="internal" x="31.61" y="62.50" incLanes=":J1_15_0 -E2_0 -E2_1" intLanes=":J1_1_0 :J1_1_1 :J1_3_0 :J1_4_0 :J1_5_0 :J1_5_1 :J1_9_0 :J1_9_1 :J1_11_0"/>

    <connection from="-E1" to="E3" fromLane="0" toLane="0" via=":J1_0_0" tl="J1" linkIndex="0" dir="r" state="o"/>
    <connection from="-E1" to="-E0" fromLane="0" toLane="0" via=":J1_1_0" tl="J1" linkIndex="1" dir="s" state="o"/>
    <connection from="-E1" to="-E0" fromLane="1" toLane="1" via=":J1_1_1" tl="J1" linkIndex="2" dir="s" state="o"/>
    <connection from="-E1" to="E2" fromLane="2" toLane="1" via=":J1_3_0" tl="J1" linkIndex="3" dir="l" state="o"/>
    <connection from="-E2" to="E1" fromLane="0" toLane="0" via=":J1_4_0" tl="J1" linkIndex="4" dir="r" state="O"/>
    <connection from="-E2" to="E3" fromLane="0" toLane="0" via=":J1_5_0" tl="J1" linkIndex="5" dir="s" state="O"/>
    <connection from="-E2" to="E3" fromLane="1" toLane="1" via=":J1_5_1" tl="J1" linkIndex="6" dir="s" state="O"/>
    <connection from="-E2" to="-E0" fromLane="2" toLane="1" via=":J1_7_0" tl="J1" linkIndex="7" dir="l" state="o"/>
    <connection from="-E3" to="-E0" fromLane="0" toLane="0" via=":J1_12_0" tl="J1" linkIndex="12" dir="r" state="O"/>
    <connection from="-E3" to="E2" fromLane="0" toLane="0" via=":J1_13_0" tl="J1" linkIndex="13" dir="s" state="O"/>
    <connection from="-E3" to="E2" fromLane="1" toLane="1" via=":J1_13_1" tl="J1" linkIndex="14" dir="s" state="O"/>
    <connection from="-E3" to="E1" fromLane="2" toLane="1" via=":J1_15_0" tl="J1" linkIndex="15" dir="l" state="o"/>
    <connection from="E0" to="E2" fromLane="0" toLane="0" via=":J1_8_0" tl="J1" linkIndex="8" dir="r" state="o"/>
    <connection from="E0" to="E1" fromLane="0" toLane="0" via=":J1_9_0" tl="J1" linkIndex="9" dir="s" state="o"/>
    <connection from="E0" to="E1" fromLane="1" toLane="1" via=":J1_9_1" tl="J1" linkIndex="10" dir="s" state="o"/>
    <connection from="E0" to="E3" fromLane="2" toLane="1" via=":J1_11_0" tl="J1" linkIndex="11" dir="l" state="o"/>

    <connection from=":J1_0" to="E3" fromLane="0" toLane="0" dir="r" state="M"/>
    <connection from=":J1_1" to="-E0" fromLane="0" toLane="0" dir="s" state="M"/>
    <connection from=":J1_1" to="-E0" fromLane="1" toLane="1" dir="s" state="M"/>
    <connection from=":J1_3" to="E2" fromLane="0" toLane="1" via=":J1_16_0" dir="l" state="m"/>
    <connection from=":J1_16" to="E2" fromLane="0" toLane="1" dir="l" state="M"/>
    <connection from=":J1_4" to="E1" fromLane="0" toLane="0" dir="r" state="M"/>
    <connection from=":J1_5" to="E3" fromLane="0" toLane="0" dir="s" state="M"/>
    <connection from=":J1_5" to="E3" fromLane="1" toLane="1" dir="s" state="M"/>
    <connection from=":J1_7" to="-E0" fromLane="0" toLane="1" via=":J1_17_0" dir="l" state="m"/>
    <connection from=":J1_17" to="-E0" fromLane="0" toLane="1" dir="l" state="M"/>
    <connection from=":J1_8" to="E2" fromLane="0" toLane="0" dir="r" state="M"/>
    <connection from=":J1_9" to="E1" fromLane="0" toLane="0" dir="s" state="M"/>
    <connection from=":J1_9" to="E1" fromLane="1" toLane="1" dir="s" state="M"/>
    <connection from=":J1_11" to="E3" fromLane="0" toLane="1" via=":J1_18_0" dir="l" state="m"/>
    <connection from=":J1_18" to="E3" fromLane="0" toLane="1" dir="l" state="M"/>
    <connection from=":J1_12" to="-E0" fromLane="0" toLane="0" dir="r" state="M"/>
    <connection from=":J1_13" to="E2" fromLane="0" toLane="0" dir="s" state="M"/>
    <connection from=":J1_13" to="E2" fromLane="1" toLane="1" dir="s" state="M"/>
    <connection from=":J1_15" to="E1" fromLane="0" toLane="1" via=":J1_19_0" dir="l" state="m"/>
    <connection from=":J1_19" to="E1" fromLane="0" toLane="1" dir="l" state="M"/>

</net>
