<?xml version="1.0" encoding="UTF-8"?>

<!-- generated on 2023-09-06 12:07:37 by Eclipse SUMO netedit Version 1.16.0
-->

<routes xmlns:xsi="http://www.w3.org/2001/XMLSchema-instance" xsi:noNamespaceSchemaLocation="http://sumo.dlr.de/xsd/routes_file.xsd">
    <!-- Routes -->
    <route id="r_0" edges="-E3 E1"/>
    <route id="r_1" edges="-E3 E1"/>
    <route id="r_10" edges="-E2 E1"/>
    <route id="r_11" edges="-E2 E3"/>
    <route id="r_12" edges="-E2 -E0"/>
    <route id="r_2" edges="-E3 -E0"/>
    <route id="r_3" edges="-E3 E2"/>
    <route id="r_4" edges="-E3 E2"/>
    <route id="r_5" edges="-E3 -E0"/>
    <route id="r_6" edges="E0 E1"/>
    <route id="r_7" edges="E0 E2"/>
    <route id="r_8" edges="E0 E3"/>
    <route id="r_9" edges="E0 E1"/>
    <!-- Vehicles, persons and containers (sorted by depart) -->
    <flow id="f_0" begin="0.00" route="r_6" end="3600.00" vehsPerHour="1800.00"/>
    <flow id="f_1" begin="0.00" route="r_6" end="3600.00" vehsPerHour="1800.00"/>
    <flow id="f_10" begin="0.00" route="r_1" end="3600.00" vehsPerHour="1800.00"/>
    <flow id="f_11" begin="0.00" route="r_1" end="3600.00" vehsPerHour="1800.00"/>
    <flow id="f_12" begin="0.00" route="r_2" end="3600.00" vehsPerHour="1800.00"/>
    <flow id="f_13" begin="0.00" route="r_2" end="3600.00" vehsPerHour="1800.00"/>
    <flow id="f_14" begin="0.00" route="r_2" end="3600.00" vehsPerHour="1800.00"/>
    <flow id="f_15" begin="0.00" route="r_12" end="3600.00" vehsPerHour="1800.00"/>
    <flow id="f_16" begin="0.00" route="r_12" end="3600.00" vehsPerHour="1800.00"/>
    <flow id="f_17" begin="0.00" route="r_0" end="3600.00" vehsPerHour="1800.00"/>
    <flow id="f_18" begin="0.00" route="r_0" end="3600.00" vehsPerHour="1800.00"/>
    <flow id="f_19" begin="0.00" route="r_3" end="3600.00" vehsPerHour="1800.00"/>
    <flow id="f_2" begin="0.00" route="r_6" end="3600.00" vehsPerHour="1800.00"/>
    <flow id="f_20" begin="0.00" route="r_8" end="3600.00" vehsPerHour="1800.00"/>
    <flow id="f_21" begin="0.00" route="r_8" end="3600.00" vehsPerHour="1800.00"/>
    <flow id="f_22" begin="0.00" route="r_12" end="3600.00" vehsPerHour="1800.00"/>
    <flow id="f_23" begin="0.00" route="r_11" end="3600.00" vehsPerHour="1800.00"/>
    <flow id="f_3" begin="0.00" route="r_6" end="3600.00" vehsPerHour="1800.00"/>
    <flow id="f_4" begin="0.00" route="r_6" end="3600.00" vehsPerHour="1800.00"/>
    <flow id="f_5" begin="0.00" route="r_6" end="3600.00" vehsPerHour="1800.00"/>
    <flow id="f_6" begin="0.00" route="r_6" end="3600.00" vehsPerHour="1800.00"/>
    <flow id="f_7" begin="0.00" route="r_6" end="3600.00" vehsPerHour="1800.00"/>
    <flow id="f_8" begin="0.00" route="r_11" end="3600.00" vehsPerHour="1800.00"/>
    <flow id="f_9" begin="0.00" route="r_11" end="3600.00" vehsPerHour="1800.00"/>
</routes>
