<additional xmlns:xsi="http://www.w3.org/2001/XMLSchema-instance" xsi:noNamespaceSchemaLocation="http://sumo.dlr.de/xsd/additional_file.xsd">
    <laneAreaDetector file="e2output.xml" freq="60" friendlyPos="x" id="e2det_-10427692#1_1" lane="-10427692#1_1" length="35" pos="7.809999999999997"/>
    <laneAreaDetector file="e2output.xml" freq="60" friendlyPos="x" id="e2det_-10427692#1_2" lane="-10427692#1_2" length="35" pos="7.809999999999997"/>
    <laneAreaDetector file="e2output.xml" freq="60" friendlyPos="x" id="e2det_-18809672#1_1" lane="-18809672#1_1" length="26.759999999999998" pos="1.4155343563970746e-15"/>
    <laneAreaDetector file="e2output.xml" freq="60" friendlyPos="x" id="e2det_-201963533#0_1" lane="-201963533#0_1" length="12.33" pos="0"/>
    <laneAreaDetector file="e2output.xml" freq="60" friendlyPos="x" id="e2det_-201963533#0_2" lane="-201963533#0_2" length="12.33" pos="0"/>
    <laneAreaDetector file="e2output.xml" freq="60" friendlyPos="x" id="e2det_-201963533#0_3" lane="-201963533#0_3" length="12.33" pos="0"/>
    <laneAreaDetector file="e2output.xml" freq="60" friendlyPos="x" id="e2det_285549250#0_1" lane="285549250#0_1" length="35" pos="71.15"/>
    <laneAreaDetector file="e2output.xml" freq="60" friendlyPos="x" id="e2det_285549250#0_2" lane="285549250#0_2" length="35" pos="71.15"/>
    <laneAreaDetector file="e2output.xml" freq="60" friendlyPos="x" id="e2det_-129379918#1_1" lane="-129379918#1_1" length="14.860000000000001" pos="0"/>
    <laneAreaDetector file="e2output.xml" freq="60" friendlyPos="x" id="e2det_-129379918#1_2" lane="-129379918#1_2" length="14.860000000000001" pos="0"/>
    <laneAreaDetector file="e2output.xml" freq="60" friendlyPos="x" id="e2det_-447569997#0_1" lane="-447569997#0_1" length="35" pos="3.65"/>
    <laneAreaDetector file="e2output.xml" freq="60" friendlyPos="x" id="e2det_-447569997#0_2" lane="-447569997#0_2" length="35" pos="3.65"/>
    <laneAreaDetector file="e2output.xml" freq="60" friendlyPos="x" id="e2det_315358252#0_1" lane="315358252#0_1" length="35" pos="89.0"/>
    <laneAreaDetector file="e2output.xml" freq="60" friendlyPos="x" id="e2det_315358252#0_2" lane="315358252#0_2" length="35" pos="89.0"/>
    <laneAreaDetector file="e2output.xml" freq="60" friendlyPos="x" id="e2det_315358252#0_3" lane="315358252#0_3" length="35" pos="89.0"/>
    <laneAreaDetector file="e2output.xml" freq="60" friendlyPos="x" id="e2det_-129379921#0_1" lane="-129379921#0_1" length="29.45" pos="1.4155343563970746e-15"/>
    <laneAreaDetector file="e2output.xml" freq="60" friendlyPos="x" id="e2det_-129379921#0_2" lane="-129379921#0_2" length="29.45" pos="1.4155343563970746e-15"/>
    <laneAreaDetector file="e2output.xml" freq="60" friendlyPos="x" id="e2det_-129379921#0_3" lane="-129379921#0_3" length="29.45" pos="1.4155343563970746e-15"/>
    <laneAreaDetector file="e2output.xml" freq="60" friendlyPos="x" id="e2det_129379967#0_1" lane="129379967#0_1" length="28.889999999999997" pos="1.4155343563970746e-15"/>
    <laneAreaDetector file="e2output.xml" freq="60" friendlyPos="x" id="e2det_129379967#0_2" lane="129379967#0_2" length="28.889999999999997" pos="1.4155343563970746e-15"/>
    <laneAreaDetector file="e2output.xml" freq="60" friendlyPos="x" id="e2det_315358250#1_1" lane="315358250#1_1" length="19.029999999999998" pos="1.4155343563970746e-15"/>
    <laneAreaDetector file="e2output.xml" freq="60" friendlyPos="x" id="e2det_315358250#1_2" lane="315358250#1_2" length="19.029999999999998" pos="1.4155343563970746e-15"/>
    <laneAreaDetector file="e2output.xml" freq="60" friendlyPos="x" id="e2det_-136436466_1" lane="-136436466_1" length="33.82" pos="1.4155343563970746e-15"/>
    <laneAreaDetector file="e2output.xml" freq="60" friendlyPos="x" id="e2det_-136436466_2" lane="-136436466_2" length="33.82" pos="1.4155343563970746e-15"/>
    <laneAreaDetector file="e2output.xml" freq="60" friendlyPos="x" id="e2det_-136436466_3" lane="-136436466_3" length="33.82" pos="1.4155343563970746e-15"/>
    <laneAreaDetector file="e2output.xml" freq="60" friendlyPos="x" id="e2det_315358251#1_1" lane="315358251#1_1" length="10.69" pos="0"/>
    <laneAreaDetector file="e2output.xml" freq="60" friendlyPos="x" id="e2det_315358251#1_2" lane="315358251#1_2" length="10.69" pos="0"/>
    <laneAreaDetector file="e2output.xml" freq="60" friendlyPos="x" id="e2det_315358251#1_3" lane="315358251#1_3" length="10.69" pos="0"/>
    <laneAreaDetector file="e2output.xml" freq="60" friendlyPos="x" id="e2det_386687232#0_1" lane="386687232#0_1" length="35" pos="57.96999999999999"/>
    <laneAreaDetector file="e2output.xml" freq="60" friendlyPos="x" id="e2det_386687232#0_2" lane="386687232#0_2" length="35" pos="57.96999999999999"/>
    <laneAreaDetector file="e2output.xml" freq="60" friendlyPos="x" id="e2det_-170018165#1_1" lane="-170018165#1_1" length="35" pos="1.8299999999999996"/>
    <laneAreaDetector file="e2output.xml" freq="60" friendlyPos="x" id="e2det_-170018165#1_2" lane="-170018165#1_2" length="35" pos="1.8299999999999996"/>
    <laneAreaDetector file="e2output.xml" freq="60" friendlyPos="x" id="e2det_-170018165#1_3" lane="-170018165#1_3" length="35" pos="1.8299999999999996"/>
    <laneAreaDetector file="e2output.xml" freq="60" friendlyPos="x" id="e2det_170018165#0_1" lane="170018165#0_1" length="24.29" pos="1.4155343563970746e-15"/>
    <laneAreaDetector file="e2output.xml" freq="60" friendlyPos="x" id="e2det_170018165#0_2" lane="170018165#0_2" length="24.29" pos="1.4155343563970746e-15"/>
    <laneAreaDetector file="e2output.xml" freq="60" friendlyPos="x" id="e2det_224892361#7_1" lane="224892361#7_1" length="35" pos="91.05000000000001"/>
    <laneAreaDetector file="e2output.xml" freq="60" friendlyPos="x" id="e2det_224892361#7_2" lane="224892361#7_2" length="35" pos="91.05000000000001"/>
    <laneAreaDetector file="e2output.xml" freq="60" friendlyPos="x" id="e2det_-173169611#0_1" lane="-173169611#0_1" length="35" pos="34.9"/>
    <laneAreaDetector file="e2output.xml" freq="60" friendlyPos="x" id="e2det_124812856#1_1" lane="124812856#1_1" length="27.729999999999997" pos="1.4155343563970746e-15"/>
    <laneAreaDetector file="e2output.xml" freq="60" friendlyPos="x" id="e2det_124812856#1_2" lane="124812856#1_2" length="27.729999999999997" pos="1.4155343563970746e-15"/>
    <laneAreaDetector file="e2output.xml" freq="60" friendlyPos="x" id="e2det_124812856#1_3" lane="124812856#1_3" length="27.729999999999997" pos="1.4155343563970746e-15"/>
    <laneAreaDetector file="e2output.xml" freq="60" friendlyPos="x" id="e2det_201956819#0_1" lane="201956819#0_1" length="35" pos="70.56"/>
    <laneAreaDetector file="e2output.xml" freq="60" friendlyPos="x" id="e2det_201956819#0_2" lane="201956819#0_2" length="35" pos="70.56"/>
    <laneAreaDetector file="e2output.xml" freq="60" friendlyPos="x" id="e2det_-174800513_1" lane="-174800513_1" length="28.58" pos="1.4155343563970746e-15"/>
    <laneAreaDetector file="e2output.xml" freq="60" friendlyPos="x" id="e2det_-174800513_2" lane="-174800513_2" length="28.58" pos="1.4155343563970746e-15"/>
    <laneAreaDetector file="e2output.xml" freq="60" friendlyPos="x" id="e2det_176550249#4_1" lane="176550249#4_1" length="35" pos="235.21"/>
    <laneAreaDetector file="e2output.xml" freq="60" friendlyPos="x" id="e2det_176550249#4_2" lane="176550249#4_2" length="35" pos="235.21"/>
    <laneAreaDetector file="e2output.xml" freq="60" friendlyPos="x" id="e2det_201238718#1_1" lane="201238718#1_1" length="35" pos="2.379999999999997"/>
    <laneAreaDetector file="e2output.xml" freq="60" friendlyPos="x" id="e2det_-18809673#1.275_1" lane="-18809673#1.275_1" length="34.339999999999996" pos="1.4155343563970746e-15"/>
    <laneAreaDetector file="e2output.xml" freq="60" friendlyPos="x" id="e2det_-18809673#1.275_2" lane="-18809673#1.275_2" length="34.339999999999996" pos="1.4155343563970746e-15"/>
    <laneAreaDetector file="e2output.xml" freq="60" friendlyPos="x" id="e2det_-18813598#1_1" lane="-18813598#1_1" length="35" pos="22.07"/>
    <laneAreaDetector file="e2output.xml" freq="60" friendlyPos="x" id="e2det_-18813598#1_2" lane="-18813598#1_2" length="35" pos="22.07"/>
    <laneAreaDetector file="e2output.xml" freq="60" friendlyPos="x" id="e2det_-25122731#1_1" lane="-25122731#1_1" length="30.099999999999998" pos="1.4155343563970746e-15"/>
    <laneAreaDetector file="e2output.xml" freq="60" friendlyPos="x" id="e2det_201963522#6_1" lane="201963522#6_1" length="35" pos="57.26"/>
    <laneAreaDetector file="e2output.xml" freq="60" friendlyPos="x" id="e2det_-201089423#1_1" lane="-201089423#1_1" length="35" pos="25.46"/>
    <laneAreaDetector file="e2output.xml" freq="60" friendlyPos="x" id="e2det_-201089423#1_2" lane="-201089423#1_2" length="35" pos="25.46"/>
    <laneAreaDetector file="e2output.xml" freq="60" friendlyPos="x" id="e2det_-24693977#0_1" lane="-24693977#0_1" length="13.27" pos="0"/>
    <laneAreaDetector file="e2output.xml" freq="60" friendlyPos="x" id="e2det_-24693977#0_2" lane="-24693977#0_2" length="13.27" pos="0"/>
    <laneAreaDetector file="e2output.xml" freq="60" friendlyPos="x" id="e2det_-24693977#0_3" lane="-24693977#0_3" length="13.27" pos="0"/>
    <laneAreaDetector file="e2output.xml" freq="60" friendlyPos="x" id="e2det_32999434#0_1" lane="32999434#0_1" length="35" pos="77.09"/>
    <laneAreaDetector file="e2output.xml" freq="60" friendlyPos="x" id="e2det_32999434#0_2" lane="32999434#0_2" length="35" pos="77.09"/>
    <laneAreaDetector file="e2output.xml" freq="60" friendlyPos="x" id="e2det_-201201945#0.78_1" lane="-201201945#0.78_1" length="35" pos="6.220000000000001"/>
    <laneAreaDetector file="e2output.xml" freq="60" friendlyPos="x" id="e2det_-201201945#0.78_2" lane="-201201945#0.78_2" length="35" pos="6.220000000000001"/>
    <laneAreaDetector file="e2output.xml" freq="60" friendlyPos="x" id="e2det_174800513_1" lane="174800513_1" length="28.58" pos="1.4155343563970746e-15"/>
    <laneAreaDetector file="e2output.xml" freq="60" friendlyPos="x" id="e2det_174800513_2" lane="174800513_2" length="28.58" pos="1.4155343563970746e-15"/>
    <laneAreaDetector file="e2output.xml" freq="60" friendlyPos="x" id="e2det_23166741#5_1" lane="23166741#5_1" length="35" pos="136.66"/>
    <laneAreaDetector file="e2output.xml" freq="60" friendlyPos="x" id="e2det_23166741#5_2" lane="23166741#5_2" length="35" pos="136.66"/>
    <laneAreaDetector file="e2output.xml" freq="60" friendlyPos="x" id="e2det_-224892361#1_1" lane="-224892361#1_1" length="35" pos="7.549999999999999"/>
    <laneAreaDetector file="e2output.xml" freq="60" friendlyPos="x" id="e2det_-224892361#1_2" lane="-224892361#1_2" length="35" pos="7.549999999999999"/>
    <laneAreaDetector file="e2output.xml" freq="60" friendlyPos="x" id="e2det_-286646456#2_1" lane="-286646456#2_1" length="35" pos="43.13999999999999"/>
    <laneAreaDetector file="e2output.xml" freq="60" friendlyPos="x" id="e2det_-286646456#2_2" lane="-286646456#2_2" length="35" pos="43.13999999999999"/>
    <laneAreaDetector file="e2output.xml" freq="60" friendlyPos="x" id="e2det_286646456#0_1" lane="286646456#0_1" length="35" pos="26.259999999999998"/>
    <laneAreaDetector file="e2output.xml" freq="60" friendlyPos="x" id="e2det_-22690205#1_1" lane="-22690205#1_1" length="35" pos="71.51"/>
    <laneAreaDetector file="e2output.xml" freq="60" friendlyPos="x" id="e2det_-233675413#6_1" lane="-233675413#6_1" length="35" pos="14.070000000000002"/>
    <laneAreaDetector file="e2output.xml" freq="60" friendlyPos="x" id="e2det_233675413#3_1" lane="233675413#3_1" length="27.509999999999998" pos="1.4155343563970746e-15"/>
    <laneAreaDetector file="e2output.xml" freq="60" friendlyPos="x" id="e2det_233675413#3_2" lane="233675413#3_2" length="27.509999999999998" pos="1.4155343563970746e-15"/>
    <laneAreaDetector file="e2output.xml" freq="60" friendlyPos="x" id="e2det_-306240162#1_0" lane="-306240162#1_0" length="35" pos="185.4"/>
    <laneAreaDetector file="e2output.xml" freq="60" friendlyPos="x" id="e2det_-306240162#1_1" lane="-306240162#1_1" length="35" pos="185.4"/>
    <laneAreaDetector file="e2output.xml" freq="60" friendlyPos="x" id="e2det_170018165#2.175_1" lane="170018165#2.175_1" length="35" pos="81.67"/>
    <laneAreaDetector file="e2output.xml" freq="60" friendlyPos="x" id="e2det_170018165#2.175_2" lane="170018165#2.175_2" length="35" pos="81.67"/>
    <laneAreaDetector file="e2output.xml" freq="60" friendlyPos="x" id="e2det_224251776#0_1" lane="224251776#0_1" length="35" pos="9.110000000000001"/>
    <laneAreaDetector file="e2output.xml" freq="60" friendlyPos="x" id="e2det_224251776#0_2" lane="224251776#0_2" length="35" pos="9.110000000000001"/>
    <laneAreaDetector file="e2output.xml" freq="60" friendlyPos="x" id="e2det_-4942389#0_1" lane="-4942389#0_1" length="12.3" pos="0"/>
    <laneAreaDetector file="e2output.xml" freq="60" friendlyPos="x" id="e2det_-4942389#0_2" lane="-4942389#0_2" length="12.3" pos="0"/>
    <laneAreaDetector file="e2output.xml" freq="60" friendlyPos="x" id="e2det_-4942389#0_3" lane="-4942389#0_3" length="12.3" pos="0"/>
    <laneAreaDetector file="e2output.xml" freq="60" friendlyPos="x" id="e2det_136436466_1" lane="136436466_1" length="33.82" pos="1.4155343563970746e-15"/>
    <laneAreaDetector file="e2output.xml" freq="60" friendlyPos="x" id="e2det_136436466_2" lane="136436466_2" length="33.82" pos="1.4155343563970746e-15"/>
    <laneAreaDetector file="e2output.xml" freq="60" friendlyPos="x" id="e2det_136436466_3" lane="136436466_3" length="33.82" pos="1.4155343563970746e-15"/>
    <laneAreaDetector file="e2output.xml" freq="60" friendlyPos="x" id="e2det_202092676#0_1" lane="202092676#0_1" length="13.89" pos="0"/>
    <laneAreaDetector file="e2output.xml" freq="60" friendlyPos="x" id="e2det_202092676#0_2" lane="202092676#0_2" length="13.89" pos="0"/>
    <laneAreaDetector file="e2output.xml" freq="60" friendlyPos="x" id="e2det_104010354_1" lane="104010354_1" length="35" pos="14.65"/>
    <laneAreaDetector file="e2output.xml" freq="60" friendlyPos="x" id="e2det_104010354_2" lane="104010354_2" length="35" pos="14.65"/>
    <laneAreaDetector file="e2output.xml" freq="60" friendlyPos="x" id="e2det_164051413_1" lane="164051413_1" length="8.83" pos="0"/>
    <laneAreaDetector file="e2output.xml" freq="60" friendlyPos="x" id="e2det_164051413_2" lane="164051413_2" length="8.83" pos="0"/>
    <laneAreaDetector file="e2output.xml" freq="60" friendlyPos="x" id="e2det_201963537#1_1" lane="201963537#1_1" length="35" pos="108.66"/>
    <laneAreaDetector file="e2output.xml" freq="60" friendlyPos="x" id="e2det_201963537#1_2" lane="201963537#1_2" length="35" pos="108.66"/>
    <laneAreaDetector file="e2output.xml" freq="60" friendlyPos="x" id="e2det_201963537#1_3" lane="201963537#1_3" length="35" pos="108.66"/>
    <laneAreaDetector file="e2output.xml" freq="60" friendlyPos="x" id="e2det_104012170_1" lane="104012170_1" length="35" pos="9.460000000000003"/>
    <laneAreaDetector file="e2output.xml" freq="60" friendlyPos="x" id="e2det_104012170_2" lane="104012170_2" length="35" pos="9.460000000000003"/>
    <laneAreaDetector file="e2output.xml" freq="60" friendlyPos="x" id="e2det_104012170_3" lane="104012170_3" length="35" pos="9.460000000000003"/>
    <laneAreaDetector file="e2output.xml" freq="60" friendlyPos="x" id="e2det_104012170_4" lane="104012170_4" length="35" pos="9.460000000000003"/>
    <laneAreaDetector file="e2output.xml" freq="60" friendlyPos="x" id="e2det_27920078#1_1" lane="27920078#1_1" length="24.61" pos="1.4155343563970746e-15"/>
    <laneAreaDetector file="e2output.xml" freq="60" friendlyPos="x" id="e2det_27920078#1_2" lane="27920078#1_2" length="24.61" pos="1.4155343563970746e-15"/>
    <laneAreaDetector file="e2output.xml" freq="60" friendlyPos="x" id="e2det_27920078#1_3" lane="27920078#1_3" length="24.61" pos="1.4155343563970746e-15"/>
    <laneAreaDetector file="e2output.xml" freq="60" friendlyPos="x" id="e2det_27920078#1_4" lane="27920078#1_4" length="24.61" pos="1.4155343563970746e-15"/>
    <laneAreaDetector file="e2output.xml" freq="60" friendlyPos="x" id="e2det_285716192#0.83_1" lane="285716192#0.83_1" length="33.43" pos="1.4155343563970746e-15"/>
    <laneAreaDetector file="e2output.xml" freq="60" friendlyPos="x" id="e2det_285716192#0.83_2" lane="285716192#0.83_2" length="33.43" pos="1.4155343563970746e-15"/>
    <laneAreaDetector file="e2output.xml" freq="60" friendlyPos="x" id="e2det_285716192#0.83_3" lane="285716192#0.83_3" length="33.43" pos="1.4155343563970746e-15"/>
    <laneAreaDetector file="e2output.xml" freq="60" friendlyPos="x" id="e2det_285716192#0.83_4" lane="285716192#0.83_4" length="33.43" pos="1.4155343563970746e-15"/>
    <laneAreaDetector file="e2output.xml" freq="60" friendlyPos="x" id="e2det_10425609#0_1" lane="10425609#0_1" length="35" pos="16.879999999999995"/>
    <laneAreaDetector file="e2output.xml" freq="60" friendlyPos="x" id="e2det_10425609#0_2" lane="10425609#0_2" length="35" pos="16.879999999999995"/>
    <laneAreaDetector file="e2output.xml" freq="60" friendlyPos="x" id="e2det_10425609#0_3" lane="10425609#0_3" length="35" pos="16.879999999999995"/>
    <laneAreaDetector file="e2output.xml" freq="60" friendlyPos="x" id="e2det_124812857#0_1" lane="124812857#0_1" length="35" pos="108.39000000000001"/>
    <laneAreaDetector file="e2output.xml" freq="60" friendlyPos="x" id="e2det_124812857#0_2" lane="124812857#0_2" length="35" pos="108.39000000000001"/>
    <laneAreaDetector file="e2output.xml" freq="60" friendlyPos="x" id="e2det_124812857#0_3" lane="124812857#0_3" length="35" pos="108.39000000000001"/>
    <laneAreaDetector file="e2output.xml" freq="60" friendlyPos="x" id="e2det_201956821#1.68_1" lane="201956821#1.68_1" length="35" pos="2.2400000000000033"/>
    <laneAreaDetector file="e2output.xml" freq="60" friendlyPos="x" id="e2det_201956821#1.68_2" lane="201956821#1.68_2" length="35" pos="2.2400000000000033"/>
    <laneAreaDetector file="e2output.xml" freq="60" friendlyPos="x" id="e2det_201956821#1.68_3" lane="201956821#1.68_3" length="35" pos="2.2400000000000033"/>
    <laneAreaDetector file="e2output.xml" freq="60" friendlyPos="x" id="e2det_128361109#3_1" lane="128361109#3_1" length="35" pos="25.32"/>
    <laneAreaDetector file="e2output.xml" freq="60" friendlyPos="x" id="e2det_128361109#3_2" lane="128361109#3_2" length="35" pos="25.32"/>
    <laneAreaDetector file="e2output.xml" freq="60" friendlyPos="x" id="e2det_128361109#3_3" lane="128361109#3_3" length="35" pos="25.32"/>
    <laneAreaDetector file="e2output.xml" freq="60" friendlyPos="x" id="e2det_128361109#3_4" lane="128361109#3_4" length="35" pos="25.32"/>
    <laneAreaDetector file="e2output.xml" freq="60" friendlyPos="x" id="e2det_137133006#1_1" lane="137133006#1_1" length="21.36" pos="1.4155343563970746e-15"/>
    <laneAreaDetector file="e2output.xml" freq="60" friendlyPos="x" id="e2det_137133006#1_2" lane="137133006#1_2" length="21.36" pos="1.4155343563970746e-15"/>
    <laneAreaDetector file="e2output.xml" freq="60" friendlyPos="x" id="e2det_137133006#1_3" lane="137133006#1_3" length="21.36" pos="1.4155343563970746e-15"/>
    <laneAreaDetector file="e2output.xml" freq="60" friendlyPos="x" id="e2det_201201953#12_1" lane="201201953#12_1" length="35" pos="12.409999999999998"/>
    <laneAreaDetector file="e2output.xml" freq="60" friendlyPos="x" id="e2det_201201953#12_2" lane="201201953#12_2" length="35" pos="12.409999999999998"/>
    <laneAreaDetector file="e2output.xml" freq="60" friendlyPos="x" id="e2det_201201953#12_3" lane="201201953#12_3" length="35" pos="12.409999999999998"/>
    <laneAreaDetector file="e2output.xml" freq="60" friendlyPos="x" id="e2det_201201953#12_4" lane="201201953#12_4" length="35" pos="12.409999999999998"/>
    <laneAreaDetector file="e2output.xml" freq="60" friendlyPos="x" id="e2det_201238726#0.117_1" lane="201238726#0.117_1" length="35" pos="4.51"/>
    <laneAreaDetector file="e2output.xml" freq="60" friendlyPos="x" id="e2det_201238726#0.117_2" lane="201238726#0.117_2" length="35" pos="4.51"/>
    <laneAreaDetector file="e2output.xml" freq="60" friendlyPos="x" id="e2det_201238726#0.117_3" lane="201238726#0.117_3" length="35" pos="4.51"/>
    <laneAreaDetector file="e2output.xml" freq="60" friendlyPos="x" id="e2det_168702040#4_1" lane="168702040#4_1" length="35" pos="12.990000000000004"/>
    <laneAreaDetector file="e2output.xml" freq="60" friendlyPos="x" id="e2det_168702040#4_2" lane="168702040#4_2" length="35" pos="12.990000000000004"/>
    <laneAreaDetector file="e2output.xml" freq="60" friendlyPos="x" id="e2det_168702040#4_3" lane="168702040#4_3" length="35" pos="12.990000000000004"/>
    <laneAreaDetector file="e2output.xml" freq="60" friendlyPos="x" id="e2det_315358253#2_1" lane="315358253#2_1" length="35" pos="11.600000000000003"/>
    <laneAreaDetector file="e2output.xml" freq="60" friendlyPos="x" id="e2det_315358253#2_2" lane="315358253#2_2" length="35" pos="11.600000000000003"/>
    <laneAreaDetector file="e2output.xml" freq="60" friendlyPos="x" id="e2det_32999110#0_1" lane="32999110#0_1" length="35" pos="80.89"/>
    <laneAreaDetector file="e2output.xml" freq="60" friendlyPos="x" id="e2det_32999110#0_2" lane="32999110#0_2" length="35" pos="80.89"/>
    <laneAreaDetector file="e2output.xml" freq="60" friendlyPos="x" id="e2det_32999110#0_3" lane="32999110#0_3" length="35" pos="80.89"/>
    <laneAreaDetector file="e2output.xml" freq="60" friendlyPos="x" id="e2det_315358254#0_1" lane="315358254#0_1" length="35" pos="101.61000000000001"/>
    <laneAreaDetector file="e2output.xml" freq="60" friendlyPos="x" id="e2det_315358254#0_2" lane="315358254#0_2" length="35" pos="101.61000000000001"/>
    <laneAreaDetector file="e2output.xml" freq="60" friendlyPos="x" id="e2det_315358255#0_1" lane="315358255#0_1" length="35" pos="164.5"/>
    <laneAreaDetector file="e2output.xml" freq="60" friendlyPos="x" id="e2det_315358255#0_2" lane="315358255#0_2" length="35" pos="164.5"/>
    <laneAreaDetector file="e2output.xml" freq="60" friendlyPos="x" id="e2det_315358257#0.43_1" lane="315358257#0.43_1" length="35" pos="15.699999999999998"/>
    <laneAreaDetector file="e2output.xml" freq="60" friendlyPos="x" id="e2det_315358257#0.43_2" lane="315358257#0.43_2" length="35" pos="15.699999999999998"/>
    <laneAreaDetector file="e2output.xml" freq="60" friendlyPos="x" id="e2det_612075153#1_1" lane="612075153#1_1" length="35" pos="6.640000000000002"/>
    <laneAreaDetector file="e2output.xml" freq="60" friendlyPos="x" id="e2det_612075153#1_2" lane="612075153#1_2" length="35" pos="6.640000000000002"/>
    <laneAreaDetector file="e2output.xml" freq="60" friendlyPos="x" id="e2det_32021112#0_1" lane="32021112#0_1" length="35" pos="23.559999999999995"/>
    <laneAreaDetector file="e2output.xml" freq="60" friendlyPos="x" id="e2det_32021112#0_2" lane="32021112#0_2" length="35" pos="23.559999999999995"/>
    <laneAreaDetector file="e2output.xml" freq="60" friendlyPos="x" id="e2det_32021112#0_3" lane="32021112#0_3" length="35" pos="23.559999999999995"/>
    <laneAreaDetector file="e2output.xml" freq="60" friendlyPos="x" id="e2det_32124637#1_1" lane="32124637#1_1" length="26.74" pos="1.4155343563970746e-15"/>
    <laneAreaDetector file="e2output.xml" freq="60" friendlyPos="x" id="e2det_32124637#1_2" lane="32124637#1_2" length="26.74" pos="1.4155343563970746e-15"/>
    <laneAreaDetector file="e2output.xml" freq="60" friendlyPos="x" id="e2det_32124637#1_3" lane="32124637#1_3" length="26.74" pos="1.4155343563970746e-15"/>
    <laneAreaDetector file="e2output.xml" freq="60" friendlyPos="x" id="e2det_51857517#1_1" lane="51857517#1_1" length="32.65" pos="1.4155343563970746e-15"/>
    <laneAreaDetector file="e2output.xml" freq="60" friendlyPos="x" id="e2det_51857517#1_2" lane="51857517#1_2" length="32.65" pos="1.4155343563970746e-15"/>
    <laneAreaDetector file="e2output.xml" freq="60" friendlyPos="x" id="e2det_51857517#1_3" lane="51857517#1_3" length="32.65" pos="1.4155343563970746e-15"/>
    <laneAreaDetector file="e2output.xml" freq="60" friendlyPos="x" id="e2det_51857517#1_4" lane="51857517#1_4" length="32.65" pos="1.4155343563970746e-15"/>
</additional>
