<?xml version="1.0" encoding="UTF-8"?>

<!-- generated on 2023-09-16 18:46:23 by Eclipse SUMO netedit Version 1.18.0
-->

<additional xmlns:xsi="http://www.w3.org/2001/XMLSchema-instance" xsi:noNamespaceSchemaLocation="http://sumo.dlr.de/xsd/additional_file.xsd">
    <!-- Detectors -->
    <laneAreaDetector id="e2_0" lane="315358254#0_1" pos="116.33" length="20.00" period="300.00" file="e2_0.xml"/>
    <laneAreaDetector id="e2_1" lane="315358254#0_2" pos="116.42" length="20.00" period="300.00" file="e2_1.xml"/>
    <laneAreaDetector id="e2_10" lane="-224892361#1_1" pos="22.08" length="20.00" period="300.00" file="e2_10.xml"/>
    <laneAreaDetector id="e2_100" lane="51857517#1_1" pos="0.17" length="15.00" period="300.00" file="e2_100.xml"/>
    <laneAreaDetector id="e2_101" lane="51857517#1_2" pos="0.29" length="15.00" period="300.00" file="e2_101.xml"/>
    <laneAreaDetector id="e2_102" lane="51857517#1_3" pos="0.26" length="15.00" period="300.00" file="e2_102.xml"/>
    <laneAreaDetector id="e2_103" lane="51857517#1_4" pos="0.37" length="15.00" period="300.00" file="e2_103.xml"/>
    <laneAreaDetector id="e2_104" lane="168702040#4_1" pos="0.23" length="5.00" period="300.00" file="e2_104.xml"/>
    <laneAreaDetector id="e2_105" lane="168702040#4_2" pos="0.28" length="5.00" period="300.00" file="e2_105.xml"/>
    <laneAreaDetector id="e2_106" lane="168702040#4_3" pos="0.34" length="5.00" period="300.00" file="e2_106.xml"/>
    <laneAreaDetector id="e2_107" lane="32999110#0_1" pos="95.58" length="20.00" period="300.00" file="e2_107.xml"/>
    <laneAreaDetector id="e2_108" lane="32999110#0_2" pos="95.59" length="20.00" period="300.00" file="e2_108.xml"/>
    <laneAreaDetector id="e2_109" lane="32999110#0_3" pos="95.78" length="20.00" period="300.00" file="e2_109.xml"/>
    <laneAreaDetector id="e2_11" lane="-224892361#1_2" pos="22.14" length="20.00" period="300.00" file="e2_11.xml"/>
    <laneAreaDetector id="e2_110" lane="315358253#2_1" pos="6.03" length="20.00" period="300.00" file="e2_110.xml"/>
    <laneAreaDetector id="e2_111" lane="315358253#2_2" pos="6.15" length="20.00" period="300.00" file="e2_111.xml"/>
    <laneAreaDetector id="e2_112" lane="32999434#0_1" pos="92.75" length="20.00" period="300.00" file="e2_112.xml"/>
    <laneAreaDetector id="e2_113" lane="32999434#0_2" pos="92.54" length="20.00" period="300.00" file="e2_113.xml"/>
    <laneAreaDetector id="e2_114" lane="-201089423#1_1" pos="39.30" length="20.00" period="300.00" file="e2_114.xml"/>
    <laneAreaDetector id="e2_115" lane="-201089423#1_2" pos="39.43" length="20.00" period="300.00" file="e2_115.xml"/>
    <laneAreaDetector id="e2_116" lane="-24693977#0_1" pos="0.23" length="7.00" period="300.00" file="e2_116.xml"/>
    <laneAreaDetector id="e2_117" lane="-24693977#0_2" pos="0.30" length="7.00" period="300.00" file="e2_117.xml"/>
    <laneAreaDetector id="e2_118" lane="-24693977#0_3" pos="0.50" length="7.00" period="300.00" file="e2_118.xml"/>
    <laneAreaDetector id="e2_119" lane="285716192#0.83_1" pos="0.35" length="11.00" period="300.00" file="e2_119.xml"/>
    <laneAreaDetector id="e2_12" lane="286646456#0_1" pos="12.63" length="20.00" period="300.00" file="e2_12.xml"/>
    <laneAreaDetector id="e2_120" lane="285716192#0.83_2" pos="0.43" length="11.00" period="300.00" file="e2_120.xml"/>
    <laneAreaDetector id="e2_121" lane="285716192#0.83_3" pos="0.35" length="11.00" period="300.00" file="e2_121.xml"/>
    <laneAreaDetector id="e2_122" lane="285716192#0.83_4" pos="0.42" length="11.00" period="300.00" file="e2_122.xml"/>
    <laneAreaDetector id="e2_123" lane="104012170_1" pos="23.62" length="20.00" period="300.00" file="e2_123.xml"/>
    <laneAreaDetector id="e2_124" lane="104012170_2" pos="23.51" length="20.00" period="300.00" file="e2_124.xml"/>
    <laneAreaDetector id="e2_125" lane="104012170_3" pos="23.90" length="20.00" period="300.00" file="e2_125.xml"/>
    <laneAreaDetector id="e2_126" lane="104012170_4" pos="23.94" length="20.00" period="300.00" file="e2_126.xml"/>
    <laneAreaDetector id="e2_127" lane="27920078#1_1" pos="4.08" length="20.00" period="300.00" file="e2_127.xml"/>
    <laneAreaDetector id="e2_128" lane="27920078#1_2" pos="4.55" length="20.00" period="300.00" file="e2_128.xml"/>
    <laneAreaDetector id="e2_129" lane="27920078#1_3" pos="4.55" length="20.00" period="300.00" file="e2_129.xml"/>
    <laneAreaDetector id="e2_13" lane="224251776#0_1" pos="0.44" length="16.00" period="300.00" file="e2_14.xml"/>
    <laneAreaDetector id="e2_130" lane="27920078#1_4" pos="4.68" length="20.00" period="300.00" file="e2_130.xml"/>
    <laneAreaDetector id="e2_131" lane="-233675413#6_1" pos="28.30" length="20.00" period="300.00" file="e2_131.xml"/>
    <laneAreaDetector id="e2_132" lane="233675413#3_1" pos="0.18" length="5.00" period="300.00" file="e2_132.xml"/>
    <laneAreaDetector id="e2_133" lane="233675413#3_2" pos="0.15" length="5.00" period="300.00" file="e2_133.xml"/>
    <laneAreaDetector id="e2_134" lane="-22690205#1_1" pos="86.38" length="20.00" period="300.00" file="e2_134.xml"/>
    <laneAreaDetector id="e2_135" lane="201963537#1_1" pos="123.13" length="20.00" period="300.00" file="e2_135.xml"/>
    <laneAreaDetector id="e2_136" lane="201963537#1_2" pos="123.14" length="20.00" period="300.00" file="e2_136.xml"/>
    <laneAreaDetector id="e2_137" lane="201963537#1_3" pos="123.31" length="20.00" period="300.00" file="e2_137.xml"/>
    <laneAreaDetector id="e2_138" lane="164051413_1" pos="0.27" length="8.00" period="300.00" file="e2_138.xml"/>
    <laneAreaDetector id="e2_139" lane="164051413_2" pos="0.13" length="8.00" period="300.00" file="e2_139.xml"/>
    <laneAreaDetector id="e2_14" lane="224251776#0_2" pos="0.51" length="16.00" period="300.00" file="e2_13.xml"/>
    <laneAreaDetector id="e2_140" lane="104010354_1" pos="29.15" length="20.00" period="300.00" file="e2_140.xml"/>
    <laneAreaDetector id="e2_141" lane="104010354_2" pos="29.10" length="20.00" period="300.00" file="e2_141.xml"/>
    <laneAreaDetector id="e2_142" lane="10425609#0_1" pos="31.66" length="20.00" period="300.00" file="e2_142.xml"/>
    <laneAreaDetector id="e2_143" lane="10425609#0_2" pos="31.95" length="20.00" period="300.00" file="e2_143.xml"/>
    <laneAreaDetector id="e2_144" lane="10425609#0_3" pos="31.83" length="20.00" period="300.00" file="e2_144.xml"/>
    <laneAreaDetector id="e2_145" lane="201956821#1.68_1" pos="3.29" length="20.00" period="300.00" file="e2_145.xml"/>
    <laneAreaDetector id="e2_146" lane="201956821#1.68_2" pos="3.29" length="20.00" period="300.00" file="e2_146.xml"/>
    <laneAreaDetector id="e2_147" lane="201956821#1.68_3" pos="3.61" length="20.00" period="300.00" file="e2_147.xml"/>
    <laneAreaDetector id="e2_148" lane="124812857#0_1" pos="123.40" length="20.00" period="300.00" file="e2_148.xml"/>
    <laneAreaDetector id="e2_149" lane="124812857#0_2" pos="123.26" length="20.00" period="300.00" file="e2_149.xml"/>
    <laneAreaDetector id="e2_15" lane="170018165#2.175_1" pos="95.89" length="20.00" period="300.00" file="e2_15.xml"/>
    <laneAreaDetector id="e2_150" lane="124812857#0_3" pos="123.30" length="20.00" period="300.00" file="e2_150.xml"/>
    <laneAreaDetector id="e2_151" lane="124812856#1_1" pos="0.07" length="0.50" period="300.00" file="e2_151.xml"/>
    <laneAreaDetector id="e2_152" lane="124812856#1_2" pos="0.00" length="0.50" period="300.00" file="e2_152.xml"/>
    <laneAreaDetector id="e2_153" lane="124812856#1_3" pos="0.15" length="0.50" period="300.00" file="e2_153.xml"/>
    <laneAreaDetector id="e2_154" lane="-173169611#0_1" pos="49.36" length="20.00" period="300.00" file="e2_154.xml"/>
    <laneAreaDetector id="e2_155" lane="201956819#0_1" pos="85.38" length="20.00" period="300.00" file="e2_155.xml"/>
    <laneAreaDetector id="e2_156" lane="201956819#0_2" pos="85.42" length="20.00" period="300.00" file="e2_156.xml"/>
    <laneAreaDetector id="e2_16" lane="170018165#2.175_2" pos="96.45" length="20.00" period="300.00" file="e2_16.xml"/>
    <laneAreaDetector id="e2_17" lane="-306240162#1_0" pos="200.06" length="20.00" period="300.00" file="e2_17.xml"/>
    <laneAreaDetector id="e2_18" lane="-306240162#1_1" pos="200.49" length="20.00" period="300.00" file="e2_18.xml"/>
    <laneAreaDetector id="e2_19" lane="224892361#7_1" pos="105.83" length="20.00" period="300.00" file="e2_19.xml"/>
    <laneAreaDetector id="e2_2" lane="315358257#0.43_1" pos="30.46" length="20.00" period="300.00" file="e2_2.xml"/>
    <laneAreaDetector id="e2_20" lane="224892361#7_2" pos="105.91" length="20.00" period="300.00" file="e2_20.xml"/>
    <laneAreaDetector id="e2_21" lane="170018165#0_2" pos="0.28" length="9.00" period="300.00" file="e2_21.xml"/>
    <laneAreaDetector id="e2_22" lane="-170018165#1_1" pos="0.17" length="6.00" period="300.00" file="e2_22.xml"/>
    <laneAreaDetector id="e2_23" lane="170018165#0_1" pos="0.30" length="9.00" period="300.00" file="e2_23.xml"/>
    <laneAreaDetector id="e2_24" lane="-170018165#1_2" pos="0.20" length="6.00" period="300.00" file="e2_24.xml"/>
    <laneAreaDetector id="e2_25" lane="-170018165#1_3" pos="0.25" length="6.00" period="300.00" file="e2_25.xml"/>
    <laneAreaDetector id="e2_26" lane="176550246_1" pos="0.21" length="6.00" period="300.00" file="e2_26.xml"/>
    <laneAreaDetector id="e2_27" lane="176550246_2" pos="0.19" length="6.00" period="300.00" file="e2_27.xml"/>
    <laneAreaDetector id="e2_28" lane="176550246_3" pos="0.22" length="6.00" period="300.00" file="e2_28.xml"/>
    <laneAreaDetector id="e2_29" lane="176550246_4" pos="0.21" length="6.00" period="300.00" file="e2_29.xml"/>
    <laneAreaDetector id="e2_3" lane="315358257#0.43_2" pos="30.61" length="20.00" period="300.00" file="e2_3.xml"/>
    <laneAreaDetector id="e2_30" lane="201238726#0.117_1" pos="0.31" length="7.00" period="300.00" file="e2_30.xml"/>
    <laneAreaDetector id="e2_31" lane="201238726#0.117_2" pos="0.37" length="7.00" period="300.00" file="e2_31.xml"/>
    <laneAreaDetector id="e2_32" lane="128361109#3_1" pos="48.64" length="6.00" period="300.00" file="e2_32.xml"/>
    <laneAreaDetector id="e2_33" lane="201238726#0.117_3" pos="0.15" length="7.00" period="300.00" file="e2_33.xml"/>
    <laneAreaDetector id="e2_34" lane="128361109#3_2" pos="48.54" length="6.00" period="300.00" file="e2_34.xml"/>
    <laneAreaDetector id="e2_35" lane="128361109#3_3" pos="48.49" length="6.00" period="300.00" file="e2_35.xml"/>
    <laneAreaDetector id="e2_36" lane="128361109#3_4" pos="48.29" length="6.00" period="300.00" file="e2_36.xml"/>
    <laneAreaDetector id="e2_37" lane="137133006#1_1" pos="0.23" length="3.50" period="300.00" file="e2_37.xml"/>
    <laneAreaDetector id="e2_38" lane="137133006#1_2" pos="0.32" length="3.70" period="300.00" file="e2_38.xml"/>
    <laneAreaDetector id="e2_39" lane="137133006#1_3" pos="0.16" length="3.90" period="300.00" file="e2_39.xml"/>
    <laneAreaDetector id="e2_4" lane="315358255#0_1" pos="179.06" length="20.00" period="300.00" file="e2_4.xml"/>
    <laneAreaDetector id="e2_40" lane="-10427692#1_1" pos="22.54" length="20.00" period="300.00" file="e2_40.xml"/>
    <laneAreaDetector id="e2_41" lane="-10427692#1_2" pos="22.73" length="20.00" period="300.00" file="e2_41.xml"/>
    <laneAreaDetector id="e2_42" lane="-201963533#0_1" pos="0.42" length="3.00" period="300.00" file="e2_42.xml"/>
    <laneAreaDetector id="e2_43" lane="-201963533#0_2" pos="0.38" length="3.00" period="300.00" file="e2_43.xml"/>
    <laneAreaDetector id="e2_44" lane="-201963533#0_3" pos="0.48" length="3.00" period="300.00" file="e2_44.xml"/>
    <laneAreaDetector id="e2_45" lane="-18809672#1_1" pos="0.26" length="10.00" period="300.00" file="e2_45.xml"/>
    <laneAreaDetector id="e2_46" lane="285549250#0_1" pos="85.78" length="20.00" period="300.00" file="e2_46.xml"/>
    <laneAreaDetector id="e2_47" lane="285549250#0_2" pos="85.79" length="20.00" period="300.00" file="e2_47.xml"/>
    <laneAreaDetector id="e2_48" lane="-18813598#1_1" pos="36.21" length="20.00" period="300.00" file="e2_48.xml"/>
    <laneAreaDetector id="e2_49" lane="-18813598#1_2" pos="36.70" length="20.00" period="300.00" file="e2_49.xml"/>
    <laneAreaDetector id="e2_5" lane="315358255#0_2" pos="179.01" length="20.00" period="300.00" file="e2_5.xml"/>
    <laneAreaDetector id="e2_50" lane="-25122731#1_1" pos="3.26" length="20.00" period="300.00" file="e2_50.xml"/>
    <laneAreaDetector id="e2_51" lane="-18809673#1.275_1" pos="13.23" length="20.00" period="300.00" file="e2_51.xml"/>
    <laneAreaDetector id="e2_52" lane="-18809673#1.275_2" pos="14.05" length="20.00" period="300.00" file="e2_52.xml"/>
    <laneAreaDetector id="e2_53" lane="201963522#6_1" pos="72.16" length="20.00" period="300.00" file="e2_53.xml"/>
    <laneAreaDetector id="e2_54" lane="-129379921#0_1" pos="0.38" length="17.00" period="300.00" file="e2_54.xml"/>
    <laneAreaDetector id="e2_55" lane="-129379921#0_2" pos="0.58" length="17.00" period="300.00" file="e2_55.xml"/>
    <laneAreaDetector id="e2_56" lane="-129379921#0_3" pos="0.77" length="17.00" period="300.00" file="e2_56.xml"/>
    <laneAreaDetector id="e2_57" lane="129379967#0_1" pos="7.55" length="20.00" period="300.00" file="e2_57.xml"/>
    <laneAreaDetector id="e2_58" lane="129379967#0_2" pos="7.95" length="20.00" period="300.00" file="e2_58.xml"/>
    <laneAreaDetector id="e2_59" lane="315358250#1_1" pos="0.21" length="4.00" period="300.00" file="e2_59.xml"/>
    <laneAreaDetector id="e2_6" lane="612075153#1_1" pos="0.45" length="7.00" period="300.00" file="e2_6.xml"/>
    <laneAreaDetector id="e2_60" lane="315358250#1_2" pos="0.26" length="4.00" period="300.00" file="e2_60.xml"/>
    <laneAreaDetector id="e2_61" lane="-447569997#0_1" pos="0.16" length="1.00" period="300.00" file="e2_61.xml"/>
    <laneAreaDetector id="e2_62" lane="-447569997#0_2" pos="0.12" length="1.00" period="300.00" file="e2_62.xml"/>
    <laneAreaDetector id="e2_63" lane="-129379918#1_1" pos="0.48" length="15.00" period="300.00" file="e2_63.xml"/>
    <laneAreaDetector id="e2_64" lane="-129379918#1_2" pos="0.69" length="15.00" period="300.00" file="e2_64.xml"/>
    <laneAreaDetector id="e2_65" lane="315358252#0_1" pos="103.00" length="20.00" period="300.00" file="e2_65.xml"/>
    <laneAreaDetector id="e2_66" lane="315358252#0_2" pos="103.22" length="20.00" period="300.00" file="e2_66.xml"/>
    <laneAreaDetector id="e2_67" lane="315358252#0_3" pos="102.97" length="20.00" period="300.00" file="e2_67.xml"/>
    <laneAreaDetector id="e2_68" lane="315358242#3_1" pos="110.52" length="15.00" period="300.00" file="e2_68.xml"/>
    <laneAreaDetector id="e2_69" lane="315358242#3_2" pos="110.65" length="15.00" period="300.00" file="e2_69.xml"/>
    <laneAreaDetector id="e2_7" lane="612075153#1_2" pos="0.44" length="7.00" period="300.00" file="e2_7.xml"/>
    <laneAreaDetector id="e2_70" lane="386687232#0_1" pos="64.25" length="20.00" period="300.00" file="e2_70.xml"/>
    <laneAreaDetector id="e2_71" lane="386687232#0_2" pos="64.19" length="20.00" period="300.00" file="e2_71.xml"/>
    <laneAreaDetector id="e2_72" lane="-136436466_1" pos="0.16" length="15.00" period="300.00" file="e2_72.xml"/>
    <laneAreaDetector id="e2_73" lane="-136436466_2" pos="0.22" length="15.00" period="300.00" file="e2_73.xml"/>
    <laneAreaDetector id="e2_74" lane="-136436466_3" pos="0.27" length="15.00" period="300.00" file="e2_74.xml"/>
    <laneAreaDetector id="e2_75" lane="136436466_1" pos="0.15" length="15.00" period="300.00" file="e2_75.xml"/>
    <laneAreaDetector id="e2_76" lane="136436466_2" pos="0.15" length="15.00" period="300.00" file="e2_76.xml"/>
    <laneAreaDetector id="e2_77" lane="136436466_3" pos="0.25" length="15.00" period="300.00" file="e2_77.xml"/>
    <laneAreaDetector id="e2_78" lane="-4942389#1_1" pos="0.21" length="2.50" period="300.00" file="e2_78.xml"/>
    <laneAreaDetector id="e2_79" lane="-4942389#1_2" pos="0.19" length="2.50" period="300.00" file="e2_79.xml"/>
    <laneAreaDetector id="e2_8" lane="-286646456#2_1" pos="57.76" length="20.00" period="300.00" file="e2_8.xml"/>
    <laneAreaDetector id="e2_80" lane="-4942389#1_3" pos="0.20" length="2.50" period="300.00" file="e2_80.xml"/>
    <laneAreaDetector id="e2_81" lane="202092676#0_1" pos="0.16" length="8.00" period="300.00" file="e2_81.xml"/>
    <laneAreaDetector id="e2_82" lane="202092676#0_2" pos="0.17" length="8.00" period="300.00" file="e2_82.xml"/>
    <laneAreaDetector id="e2_83" lane="23166741#5_1" pos="149.41" length="20.00" period="300.00" file="e2_83.xml"/>
    <laneAreaDetector id="e2_84" lane="23166741#5_2" pos="149.61" length="20.00" period="300.00" file="e2_84.xml"/>
    <laneAreaDetector id="e2_85" lane="174800513_1" pos="0.42" length="11.00" period="300.00" file="e2_85.xml"/>
    <laneAreaDetector id="e2_86" lane="174800513_2" pos="0.61" length="11.00" period="300.00" file="e2_86.xml"/>
    <laneAreaDetector id="e2_87" lane="-201201945#0.78_1" pos="28.86" length="20.00" period="300.00" file="e2_87.xml"/>
    <laneAreaDetector id="e2_88" lane="-201201945#0.78_2" pos="28.94" length="20.00" period="300.00" file="e2_88.xml"/>
    <laneAreaDetector id="e2_89" lane="201238718#1_1" pos="23.59" length="20.00" period="300.00" file="e2_89.xml"/>
    <laneAreaDetector id="e2_9" lane="-286646456#2_2" pos="57.87" length="20.00" period="300.00" file="e2_9.xml"/>
    <laneAreaDetector id="e2_90" lane="176550249#4_1" pos="250.90" length="20.00" period="300.00" file="e2_90.xml"/>
    <laneAreaDetector id="e2_91" lane="176550249#4_2" pos="250.75" length="20.00" period="300.00" file="e2_91.xml"/>
    <laneAreaDetector id="e2_92" lane="-174800513_1" pos="0.38" length="11.00" period="300.00" file="e2_92.xml"/>
    <laneAreaDetector id="e2_93" lane="-174800513_2" pos="0.78" length="11.00" period="300.00" file="e2_93.xml"/>
    <laneAreaDetector id="e2_94" lane="32124637#1_1" pos="6.70" length="20.00" period="300.00" file="e2_94.xml"/>
    <laneAreaDetector id="e2_95" lane="32124637#1_2" pos="6.46" length="20.00" period="300.00" file="e2_95.xml"/>
    <laneAreaDetector id="e2_96" lane="32124637#1_3" pos="6.33" length="20.00" period="300.00" file="e2_96.xml"/>
    <laneAreaDetector id="e2_97" lane="32021112#0_1" pos="38.53" length="20.00" period="300.00" file="e2_97.xml"/>
    <laneAreaDetector id="e2_98" lane="32021112#0_2" pos="38.54" length="20.00" period="300.00" file="e2_98.xml"/>
    <laneAreaDetector id="e2_99" lane="32021112#0_3" pos="38.48" length="20.00" period="300.00" file="e2_99.xml"/>
</additional>
