<?xml version="1.0" encoding="UTF-8"?>
<routes xmlns:xsi="http://www.w3.org/2001/XMLSchema-instance" xsi:noNamespaceSchemaLocation="http://sumo.dlr.de/xsd/routes_file.xsd">
	<vType id="bus" vClass="bus" color="green"/>
	<vType id="default_017" vClass="passenger" color="red"/>
    <vType id="random_017" vClass="passenger" color="red"/>
	<vType id="default_016" vClass="passenger" color="red"/>
    <vType id="random_016" vClass="passenger" color="red"/>
	<vType id="default_015" vClass="passenger" color="red"/>
    <vType id="random_015" vClass="passenger" color="red"/>
	<vType id="default_014" vClass="passenger" color="red"/>
    <vType id="random_014" vClass="passenger" color="red"/>
	<vType id="default_013" vClass="passenger" color="red"/>
    <vType id="random_013" vClass="passenger" color="red"/>
    <vType id="default_012" vClass="passenger" color="red"/>
    <vType id="random_012" vClass="passenger" color="red"/>
	<vType id="default_011" vClass="passenger" color="red"/>
    <vType id="random_011" vClass="passenger" color="red"/>
	<vType id="default_010" vClass="passenger" color="red"/>
    <vType id="random_010" vClass="passenger" color="red"/>
	<vType id="default_009" vClass="passenger" color="red"/>
    <vType id="random_009" vClass="passenger" color="red"/>
	<vType id="default_008" vClass="passenger" color="red"/>
    <vType id="random_008" vClass="passenger" color="red"/>
	<vType id="default_007" vClass="passenger" color="red"/>
    <vType id="random_007" vClass="passenger" color="red"/>
	<vType id="default_006" vClass="passenger" color="red"/>
    <vType id="random_006" vClass="passenger" color="red"/>
	<vType id="default_005" vClass="passenger" color="red"/>
    <vType id="random_005" vClass="passenger" color="red"/>
	<vType id="default_004" vClass="passenger" color="red"/>
    <vType id="random_004" vClass="passenger" color="red"/>
	<vType id="default_003" vClass="passenger" color="red"/>
    <vType id="random_003" vClass="passenger" color="red"/>
	<vType id="default_022" vClass="passenger" color="red"/>
    <vType id="random_022" vClass="passenger" color="red"/>
	<vType id="default_021" vClass="passenger" color="red"/>
    <vType id="random_021" vClass="passenger" color="red"/>
	<vType id="default_020" vClass="passenger" color="red"/>
    <vType id="random_020" vClass="passenger" color="red"/>
	<vType id="default_019" vClass="passenger" color="red"/>
    <vType id="random_019" vClass="passenger" color="red"/>
	<vType id="default_018" vClass="passenger" color="red"/>
    <vType id="random_018" vClass="passenger" color="red"/>
	<vType id="default_002" vClass="passenger" color="red"/>
    <vType id="random_002" vClass="passenger" color="red"/>
	<vType id="default_001" vClass="passenger" color="red"/>
    <vType id="random_001" vClass="passenger" color="red"/>
	<trip id="h2831c1:1" type="default_016" depart="0.0" from="201089423#0" to="-315358244"/>
	<trip id="carIn107084:1" type="default_016" depart="0.3" from="124812856#0" to="-128361102#1"/>
	<trip id="carIn80064:1" type="default_016" depart="2.6" from="128361109#1" to="-315358254#1"/>
	<trip id="randUni10474:1" type="random_016" depart="4.8" from="124812856#0" to="306240162#0"/>
	<trip id="carIn60260:1" type="default_016" depart="5.1" from="315358254#0" to="399835085#1"/>
	<trip id="randUni14624:1" type="random_016" depart="5.2" from="315358244" to="-25149001#4"/>
	<trip id="carIn77943:1" type="default_016" depart="5.5" from="124812856#0" to="-128361102#1"/>
	<trip id="carIn28951:1" type="default_016" depart="5.8" from="10425609#0" to="-128361102#1"/>
	<trip id="carIn81046:1" type="default_016" depart="8.5" from="124812856#0" to="-128361102#1"/>
	<trip id="h15454c2:3" type="default_016" depart="11.5" from="24608844" to="32978638#0"/>
	<trip id="h12244c1:3" type="default_016" depart="11.6" from="315358244" to="386687235"/>
	<trip id="S5R_frequency1.2" type="bus" depart="11.6" from="315358250#0" to="386687235"/>
	<trip id="carIn48184:1" type="default_016" depart="12.3" from="-306240162#1" to="386687235"/>
	<trip id="carIn77438:1" type="default_016" depart="12.9" from="124812856#0" to="-128361102#1"/>
	<trip id="carIn22761:1" type="default_016" depart="13.9" from="-306240162#1" to="399835085#1"/>
	<trip id="h19804c1:3" type="default_016" depart="15.5" from="124812856#0" to="-128361102#1"/>
	<trip id="carIn82220:1" type="default_016" depart="15.5" from="-306240162#1" to="386687235"/>
	<trip id="carIn86816:1" type="default_016" depart="16.2" from="128361102#0" to="201956811#0"/>
	<trip id="carIn462:1" type="default_016" depart="17.2" from="-306240162#1" to="386687235"/>
	<trip id="carIn767:1" type="default_016" depart="18.5" from="124812856#0" to="306240162#0"/>
	<trip id="carIn107842:1" type="default_016" depart="21.1" from="124812856#0" to="-128361102#1"/>
	<trip id="h645c1:1" type="default_016" depart="21.6" from="266565295#5" to="-315358244"/>
	<trip id="h15382c1:3" type="default_016" depart="22.2" from="124812856#0" to="-128361102#1"/>
	<trip id="carIn3969:1" type="default_016" depart="23.7" from="124812856#0" to="-128361102#1"/>
	<trip id="carIn56649:1" type="default_016" depart="23.9" from="124812856#0" to="-128361102#1"/>
	<trip id="h3688c1:1" type="default_016" depart="25.0" from="201201950#1" to="32978638#0"/>
	<trip id="carIn38625:1" type="default_016" depart="25.5" from="124812856#0" to="306240162#0"/>
	<trip id="carIn116184:1" type="default_016" depart="26.9" from="-306240162#1" to="386687235"/>
	<trip id="carIn17767:1" type="default_016" depart="27.2" from="124812856#0" to="-128361102#1"/>
	<trip id="carIn64859:1" type="default_016" depart="28.4" from="124812856#0" to="306240162#0"/>
	<trip id="carIn31257:1" type="default_016" depart="28.4" from="-306240162#1" to="386687235"/>
	<trip id="carIn48979:1" type="default_016" depart="28.9" from="124812856#0" to="306240162#0"/>
	<trip id="h9563c2:5" type="default_016" depart="30.3" from="315358244" to="386687235"/>
	<trip id="carIn88932:1" type="default_016" depart="30.6" from="124812856#0" to="-128361102#1"/>
	<trip id="h15353c2:1" type="default_016" depart="30.7" from="124812856#0" to="306240162#0"/>
	<trip id="h5170c2:1" type="default_016" depart="31.0" from="201201953#4" to="-266565295#5"/>
	<trip id="carIn44740:1" type="default_016" depart="32.3" from="124812856#0" to="-128361102#1"/>
	<trip id="randUni29093:1" type="random_016" depart="33.0" from="124812856#0" to="201238729#3"/>
	<trip id="h20540c1:1" type="default_016" depart="33.5" from="10425609#0" to="-128361102#1"/>
	<trip id="carIn64490:1" type="default_016" depart="33.9" from="124812856#0" to="306240162#0"/>
	<trip id="h13311c1:3" type="default_016" depart="35.0" from="399835085#1" to="32978638#0"/>
	<trip id="carIn13362:1" type="default_016" depart="35.6" from="124812856#0" to="306240162#0"/>
	<trip id="carIn99385:1" type="default_016" depart="37.1" from="124812856#0" to="-128361102#1"/>
	<trip id="carIn101568:1" type="default_016" depart="37.5" from="-306240162#1" to="386687235"/>
	<trip id="carIn11547:1" type="default_016" depart="37.7" from="124812856#0" to="306240162#0"/>
	<trip id="carIn53971:1" type="default_016" depart="39.2" from="272042143" to="24634414#1"/>
	<trip id="carIn25314:1" type="default_016" depart="40.2" from="124812856#0" to="306240162#0"/>
	<trip id="carIn23683:1" type="default_016" depart="40.8" from="-306240162#1" to="201956820"/>
	<trip id="carIn102915:1" type="default_016" depart="42.6" from="128361102#0" to="201956811#0"/>
	<trip id="carIn32621:1" type="default_016" depart="43.0" from="124812856#0" to="-128361102#1"/>
	<trip id="randUni33724:1" type="random_016" depart="44.8" from="128361102#0" to="201956811#0"/>
	<trip id="carIn96510:1" type="default_016" depart="44.8" from="-306240162#1" to="201956820"/>
	<trip id="carIn12152:1" type="default_016" depart="46.5" from="24599188#0.94" to="-315358254#1"/>
	<trip id="carIn121703:1" type="default_016" depart="46.7" from="386687232#0" to="-315358244"/>
	<trip id="carIn50326:1" type="default_016" depart="50.7" from="128361102#0" to="18809673#0"/>
	<trip id="h3568c1:3" type="default_016" depart="55.2" from="266565295#5" to="-24634415"/>
	<trip id="h3326c1:2" type="default_016" depart="56.0" from="22716069#0" to="24634517#13"/>
	<trip id="carIn106665:1" type="default_016" depart="57.2" from="266565295#5" to="201238729#3"/>
	<trip id="carIn61442:1" type="default_016" depart="57.3" from="-306240162#1" to="386687235"/>
	<trip id="h3154c1:1" type="default_016" depart="58.0" from="24634507" to="-266565295#5"/>
	<trip id="h7181c1:1" type="default_016" depart="59.9" from="315358254#0" to="306240162#0"/>
	<trip id="carIn12858:1" type="default_016" depart="60.1" from="128361109#1" to="399835085#1"/>
	<trip id="h16072c2:3" type="default_016" depart="60.5" from="315358254#0" to="386687235"/>
	<trip id="h21908c1:3" type="default_016" depart="60.6" from="399835085#1" to="201956820"/>
	<trip id="h17600c1:1" type="default_016" depart="61.7" from="272042143" to="201238729#3"/>
	<trip id="carIn100288:1" type="default_016" depart="63.4" from="128361102#0" to="201956811#0"/>
	<trip id="h11737c1:1" type="default_016" depart="63.5" from="272042143" to="-315358254#1"/>
	<trip id="h5216c1:1" type="default_016" depart="64.0" from="224892339#0" to="386687235"/>
	<trip id="carIn29531:1" type="default_016" depart="65.4" from="128361102#0" to="201956811#0"/>
	<trip id="carIn2912:1" type="default_016" depart="66.9" from="128361102#0" to="201956811#0"/>
	<trip id="carIn49437:1" type="default_016" depart="68.5" from="128361102#0" to="201956811#0"/>
	<trip id="h5979c1:5" type="default_016" depart="69.0" from="399835085#1" to="-315358254#1"/>
	<trip id="h7097c1:1" type="default_016" depart="69.4" from="315358242#0" to="306240162#0"/>
	<trip id="carIn85747:1" type="default_016" depart="72.3" from="128361109#1" to="386687235"/>
	<trip id="carIn27009:1" type="default_015" depart="72.5" from="-447569998#1" to="-26677539"/>
	<trip id="50R_frequency3.17" type="bus" depart="73.3" from="-18809673#6" to="201956811#0"/>
	<trip id="carIn7949:1" type="default_016" depart="73.9" from="128361109#1" to="386687235"/>
	<trip id="carIn126288:1" type="default_016" depart="74.0" from="272042143" to="-315358254#1"/>
	<trip id="h18601c1:3" type="default_016" depart="74.0" from="128361102#0" to="201956811#0"/>
	<trip id="carIn12775:1" type="default_016" depart="75.4" from="10425609#0" to="18809673#0"/>
	<trip id="carIn75660:1" type="default_016" depart="75.6" from="128361109#1" to="386687235"/>
	<trip id="h18996c2:1" type="default_016" depart="77.1" from="128361102#0" to="201956820"/>
	<trip id="carIn48137:1" type="default_016" depart="77.4" from="128361109#1" to="32978638#0"/>
	<trip id="carIn132618:1" type="default_016" depart="77.6" from="-306240162#1" to="386687235"/>
	<trip id="h3864c1:3" type="default_016" depart="78.0" from="24693977#1" to="201956820"/>
	<trip id="h8343c1:5" type="default_016" depart="78.4" from="315358254#0" to="-24634510#5"/>
	<trip id="carIn99578:1" type="default_016" depart="79.0" from="-306240162#1" to="201956820"/>
	<trip id="h19413c1:1" type="default_016" depart="79.1" from="128361109#1" to="386687235"/>
	<trip id="h17549c1:1" type="default_016" depart="80.0" from="-447569998#1" to="-315358254#1"/>
	<trip id="carIn30817:1" type="default_016" depart="80.8" from="315358244" to="447569997#1"/>
	<trip id="carIn92047:1" type="default_016" depart="81.8" from="-306240162#1" to="386687235"/>
	<trip id="carIn118538:1" type="default_016" depart="82.0" from="-447569998#1" to="399835085#1"/>
	<trip id="h9953c2:3" type="default_016" depart="82.0" from="-54169231#2" to="386687235"/>
	<trip id="carIn88905:1" type="default_016" depart="82.2" from="128361109#1" to="386687235"/>
	<trip id="carIn46110:1" type="default_016" depart="82.8" from="315358244" to="32978638#0"/>
	<trip id="carIn70061:1" type="default_016" depart="83.3" from="-306240162#1" to="386687235"/>
	<trip id="carIn119432:1" type="default_016" depart="84.7" from="-306240162#1" to="201956820"/>
	<trip id="carIn4826:1" type="default_016" depart="86.2" from="-306240162#1" to="386687235"/>
	<trip id="carIn118591:1" type="default_016" depart="88.8" from="315358244" to="386687235"/>
	<trip id="carIn99233:1" type="default_016" depart="89.1" from="128361109#1" to="386687235"/>
	<trip id="h825c2:3" type="default_016" depart="89.5" from="315358254#0" to="32978638#0"/>
	<trip id="h4388c1:3" type="default_016" depart="91.2" from="315358254#0" to="32978638#0"/>
	<trip id="h19577c1:1" type="default_016" depart="91.2" from="128361109#1" to="386687235"/>
	<trip id="h19505c1:1" type="default_016" depart="92.8" from="128361109#1" to="32978638#0"/>
	<trip id="carIn4388:1" type="default_016" depart="93.5" from="-306240162#1" to="386687235"/>
	<trip id="carIn5824:1" type="default_016" depart="94.4" from="128361109#1" to="386687235"/>
	<trip id="h7800c1:5" type="default_016" depart="96.0" from="-447569998#1" to="-447569998#1"/>
	<trip id="h7305c1:3" type="default_016" depart="96.1" from="128361109#1" to="40888354#0"/>
	<trip id="h15472c1:3" type="default_016" depart="97.0" from="-26677216#0" to="201956820"/>
	<trip id="h23116c2:5" type="default_016" depart="97.6" from="128361102#0" to="30482615#1"/>
	<trip id="h11868c1:5" type="default_016" depart="99.9" from="315358254#0" to="386687235"/>
	<trip id="h4538c1:1" type="default_016" depart="101.0" from="-10427692#1" to="-128361102#1"/>
	<trip id="carIn82278:1" type="default_016" depart="101.3" from="-306240162#1" to="399835085#1"/>
	<trip id="carIn23049:1" type="default_016" depart="105.3" from="-306240162#1" to="386687235"/>
	<trip id="h317c2:1" type="default_016" depart="106.9" from="-32978638#0" to="-266565295#5"/>
	<trip id="carIn60497:1" type="default_016" depart="109.9" from="-306240162#1" to="386687235"/>
	<trip id="carIn81860:1" type="default_016" depart="111.4" from="128361102#0" to="-24634517#17"/>
	<trip id="carIn12365:1" type="default_016" depart="112.5" from="315358244" to="447569997#1"/>
	<trip id="carIn92532:1" type="default_016" depart="112.5" from="266565295#5" to="18809673#0"/>
	<trip id="h16437c1:3" type="default_016" depart="116.2" from="315358254#0" to="386687235"/>
	<trip id="carIn36761:1" type="default_016" depart="119.5" from="-18809673#6" to="-266565295#5"/>
	<trip id="carIn99509:1" type="default_015" depart="119.8" from="-32978638#0" to="-315358244"/>
	<trip id="carIn81681:1" type="default_016" depart="125.7" from="272042143" to="306240162#0"/>
	<trip id="randUni3548:1" type="random_016" depart="126.0" from="-447569998#1" to="-315358254#1"/>
	<trip id="h6541c1:3" type="default_016" depart="127.0" from="201950247#3" to="32978638#0"/>
	<trip id="carIn129809:1" type="default_015" depart="128.0" from="-447569998#1" to="-315358244"/>
	<trip id="carIn13443:1" type="default_016" depart="128.2" from="272042143" to="399835085#1"/>
	<trip id="h19989c1:1" type="default_016" depart="129.4" from="10425609#0" to="-128361102#1"/>
	<trip id="carIn75793:1" type="default_016" depart="129.5" from="128361102#0" to="-83304175#2"/>
	<trip id="carIn80913:1" type="default_016" depart="131.6" from="272042143" to="306240162#0"/>
	<trip id="carIn92858:1" type="default_016" depart="132.2" from="10425609#0" to="-128361102#1"/>
	<trip id="h2483c1:1" type="default_016" depart="133.0" from="-24634510#15" to="201956820"/>
	<trip id="carIn36351:1" type="default_016" depart="133.9" from="-306240162#1" to="386687235"/>
	<trip id="carIn101439:1" type="default_016" depart="134.3" from="10425609#0" to="-128361102#1"/>
	<trip id="randUni15030:1" type="random_016" depart="134.9" from="386687232#0" to="26677539"/>
	<trip id="h330c1:1" type="default_016" depart="135.8" from="-32978638#0" to="-266565295#5"/>
	<trip id="carIn101266:1" type="default_016" depart="136.5" from="272042143" to="306240162#0"/>
	<trip id="carIn84229:1" type="default_016" depart="136.8" from="10425609#0" to="-128361102#1"/>
	<trip id="h15045c2:3" type="default_016" depart="137.3" from="315358254#0" to="32978638#0"/>
	<trip id="carIn129628:1" type="default_016" depart="138.5" from="24599188#0.94" to="-315358254#1"/>
	<trip id="carIn132499:1" type="default_016" depart="139.3" from="272042143" to="201238729#3"/>
	<trip id="h5938c1:1" type="default_016" depart="140.0" from="-26677542#0" to="447569997#1"/>
	<trip id="h6846c2:1" type="default_016" depart="141.0" from="26677213#0" to="386687235"/>
	<trip id="carIn14532:1" type="default_016" depart="141.1" from="272042143" to="399835085#1"/>
	<trip id="h10591c1:1" type="default_016" depart="142.4" from="266565295#5" to="18809673#0"/>
	<trip id="carIn73855:1" type="default_016" depart="142.5" from="386687232#0" to="-315358244"/>
	<trip id="h13760c1:1" type="default_016" depart="142.9" from="266565295#5" to="201238729#3"/>
	<trip id="carIn16842:1" type="default_016" depart="143.6" from="10425609#0" to="18809673#0"/>
	<trip id="carIn126378:1" type="default_016" depart="144.2" from="386687232#0" to="-315358244"/>
	<trip id="h7178c1:1" type="default_016" depart="145.0" from="315358254#0" to="386687235"/>
	<trip id="h13810c1:3" type="default_016" depart="147.0" from="399835085#1" to="32978638#0"/>
	<trip id="carIn107282:1" type="default_016" depart="149.0" from="-447569998#1" to="315358242#0"/>
	<trip id="h22816c2:3" type="default_016" depart="149.4" from="315358244" to="201956820"/>
	<trip id="carIn24735:1" type="default_016" depart="149.7" from="266565295#5" to="201238729#3"/>
	<trip id="carIn24709:1" type="default_016" depart="150.5" from="266565295#5" to="-24634506#2"/>
	<trip id="h8633c1:3" type="default_016" depart="152.0" from="24634510#0" to="201956820"/>
	<trip id="carIn123877:1" type="default_016" depart="152.5" from="-306240162#1" to="30482615#1"/>
	<trip id="carIn107484:1" type="default_016" depart="154.0" from="-306240162#1" to="386687235"/>
	<trip id="carIn121351:1" type="default_015" depart="154.7" from="-447569998#1" to="399835085#1"/>
	<trip id="carIn1513:1" type="default_016" depart="155.4" from="-306240162#1" to="386687235"/>
	<trip id="carIn41392:1" type="default_016" depart="156.8" from="-306240162#1" to="201956820"/>
	<trip id="carIn56449:1" type="default_016" depart="157.3" from="128361102#0" to="30482615#1"/>
	<trip id="carIn117869:1" type="default_016" depart="157.4" from="-32978638#0" to="-315358244"/>
	<trip id="carIn115169:1" type="default_016" depart="158.5" from="24599188#0.94" to="-10427692#3"/>
	<trip id="h8468c1:3" type="default_016" depart="160.0" from="176550249#3" to="201238729#3"/>
	<trip id="carIn125694:1" type="default_016" depart="160.4" from="128361102#0" to="201956820"/>
	<trip id="carIn27323:1" type="default_016" depart="160.5" from="24599188#0.94" to="-315358254#1"/>
	<trip id="carIn53503:1" type="default_016" depart="160.6" from="-306240162#1" to="24634510#6"/>
	<trip id="carIn49359:1" type="default_016" depart="164.5" from="128361109#1" to="386687235"/>
	<trip id="carIn82741:1" type="default_016" depart="164.6" from="128361102#0" to="201956820"/>
	<trip id="carIn70751:1" type="default_016" depart="166.1" from="128361109#1" to="386687235"/>
	<trip id="carIn106296:1" type="default_016" depart="167.0" from="124812856#0" to="18809673#0"/>
	<trip id="h3536c1:1" type="default_016" depart="167.0" from="-24634413#2" to="32978638#0"/>
	<trip id="carIn21399:1" type="default_016" depart="167.7" from="128361109#1" to="-315358254#1"/>
	<trip id="h19249c2:1" type="default_016" depart="168.9" from="128361102#0" to="201956820"/>
	<trip id="carIn7286:1" type="default_016" depart="169.3" from="128361109#1" to="386687235"/>
	<trip id="carIn75964:1" type="default_016" depart="171.2" from="128361109#1" to="386687235"/>
	<trip id="carIn48897:1" type="default_016" depart="172.8" from="128361109#1" to="386687235"/>
	<trip id="carIn8642:1" type="default_016" depart="173.1" from="-447569998#1" to="-315358244"/>
	<trip id="carIn104643:1" type="default_016" depart="173.5" from="124812856#0" to="18809673#0"/>
	<trip id="h17039c2:3" type="default_016" depart="176.4" from="315358254#0" to="386687235"/>
	<trip id="carIn90140:1" type="default_016" depart="176.6" from="128361109#1" to="399835085#1"/>
	<trip id="h15937c1:3" type="default_016" depart="177.1" from="128361102#0" to="201956811#0"/>
	<trip id="carIn60867:1" type="default_016" depart="178.2" from="128361109#1" to="386687235"/>
	<trip id="carIn17428:1" type="default_016" depart="179.8" from="-306240162#1" to="201956820"/>
	<trip id="carIn121314:1" type="default_016" depart="179.9" from="128361109#1" to="386687235"/>
	<trip id="carIn68868:1" type="default_016" depart="181.2" from="-306240162#1" to="386687235"/>
	<trip id="h9261c1:3" type="default_016" depart="181.7" from="128361109#1" to="386687235"/>
	<trip id="h13540c2:3" type="default_016" depart="181.9" from="315358244" to="32978638#0"/>
	<trip id="carIn82298:1" type="default_016" depart="182.4" from="-447569998#1" to="-315358254#1"/>
	<trip id="carIn90208:1" type="default_016" depart="182.5" from="-306240162#1" to="201956820"/>
	<trip id="h18522c1:1" type="default_016" depart="183.4" from="128361109#1" to="-315358254#1"/>
	<trip id="carIn39194:1" type="default_016" depart="183.8" from="-306240162#1" to="386687235"/>
	<trip id="carIn84877:1" type="default_016" depart="184.0" from="-18809673#6" to="201956820"/>
	<trip id="carIn116478:1" type="default_016" depart="185.1" from="128361109#1" to="-315358254#1"/>
	<trip id="carIn7631:1" type="default_016" depart="185.3" from="-32978638#0" to="-315358244"/>
	<trip id="carIn19971:1" type="default_016" depart="185.4" from="-306240162#1" to="201956820"/>
	<trip id="carIn85069:1" type="default_016" depart="185.5" from="128361102#0" to="-83304175#2"/>
	<trip id="carIn21032:1" type="default_016" depart="186.7" from="-306240162#1" to="386687235"/>
	<trip id="carIn96088:1" type="default_016" depart="188.1" from="-306240162#1" to="386687235"/>
	<trip id="carIn29676:1" type="default_016" depart="189.0" from="-160314345#5" to="-24634505"/>
	<trip id="carIn119559:1" type="default_016" depart="189.6" from="-306240162#1" to="386687235"/>
	<trip id="carIn47165:1" type="default_016" depart="191.1" from="-306240162#1" to="386687235"/>
	<trip id="h17890c1:3" type="default_016" depart="192.0" from="386687232#0" to="32978638#0"/>
	<trip id="carIn66532:1" type="default_016" depart="192.5" from="-306240162#1" to="386687235"/>
	<trip id="carIn76675:1" type="default_016" depart="194.4" from="-160314345#5" to="-315358254#1"/>
	<trip id="h19105c2:3" type="default_016" depart="194.4" from="10425609#0" to="-128361102#1"/>
	<trip id="carIn15314:1" type="default_016" depart="195.6" from="128361109#1" to="386687235"/>
	<trip id="h3301c2:3" type="default_016" depart="197.0" from="24634517#1" to="306240162#0"/>
	<trip id="h19054c1:1" type="default_016" depart="199.3" from="-306240162#1" to="386687235"/>
	<trip id="carIn123224:1" type="default_016" depart="200.9" from="128361109#1" to="-315358244"/>
	<trip id="carIn102242:1" type="default_016" depart="201.1" from="315358244" to="386687235"/>
	<trip id="carIn68387:1" type="default_016" depart="202.8" from="315358244" to="201956820"/>
	<trip id="h13377c2:3" type="default_016" depart="203.4" from="315358244" to="447569997#1"/>
	<trip id="carIn27185:1" type="default_016" depart="204.3" from="-306240162#1" to="386687235"/>
	<trip id="carIn9903:1" type="default_016" depart="204.7" from="-18809673#6" to="386687235"/>
	<trip id="carIn70533:1" type="default_016" depart="211.9" from="-447569998#1" to="-315358244"/>
	<trip id="h18243c1:3" type="default_016" depart="212.0" from="399835085#1" to="18809673#0"/>
	<trip id="carIn43750:1" type="default_016" depart="212.1" from="-306240162#1" to="386687235"/>
	<trip id="h1722c1:1" type="default_016" depart="213.0" from="18813598#2" to="-315358254#1"/>
	<trip id="randUni19661:1" type="random_016" depart="213.6" from="-306240162#1" to="272042145"/>
	<trip id="randUni31145:1" type="random_016" depart="213.7" from="10425609#0" to="201956810"/>
	<trip id="randUni2407:1" type="random_016" depart="219.2" from="10425609#0" to="201956810"/>
	<trip id="carIn114105:1" type="default_016" depart="220.8" from="10425609#0" to="306240162#0"/>
	<trip id="carIn9695:1" type="default_016" depart="221.2" from="272042143" to="-315358254#1"/>
	<trip id="carIn114651:1" type="default_016" depart="221.4" from="-306240162#1" to="272042145"/>
	<trip id="h2859c1:1" type="default_016" depart="221.9" from="201238726#0.117" to="386687235"/>
	<trip id="carIn116330:1" type="default_016" depart="222.9" from="-306240162#1" to="201956820"/>
	<trip id="carIn95912:1" type="default_016" depart="223.6" from="272042143" to="201238729#3"/>
	<trip id="carIn76994:1" type="default_016" depart="225.2" from="272042143" to="399835085#1"/>
	<trip id="carIn72316:1" type="default_016" depart="225.5" from="10425609#0" to="18809673#0"/>
	<trip id="randUni31946:1" type="random_016" depart="226.0" from="22724699#7" to="201956820"/>
	<trip id="carIn129116:1" type="default_016" depart="226.3" from="-306240162#1" to="386687235"/>
	<trip id="carIn11414:1" type="default_016" depart="226.8" from="272042143" to="306240162#0"/>
	<trip id="randUni20153:1" type="random_016" depart="228.4" from="272042143" to="201238729#3"/>
	<trip id="carIn56192:1" type="default_016" depart="229.0" from="-18809673#6" to="386687235"/>
	<trip id="h24c1:1" type="default_016" depart="229.1" from="315358254#0" to="32978638#0"/>
	<trip id="carIn42952:1" type="default_016" depart="230.0" from="272042143" to="399835085#1"/>
	<trip id="h13194c2:1" type="default_016" depart="231.6" from="272042143" to="306240162#0"/>
	<trip id="h5239c1:3" type="default_016" depart="233.2" from="315358254#0" to="224892361#3"/>
	<trip id="h13496c1:1" type="default_016" depart="233.2" from="272042143" to="399835085#1"/>
	<trip id="carIn34399:1" type="default_016" depart="233.4" from="-306240162#1" to="386687235"/>
	<trip id="carIn6863:1" type="default_016" depart="234.8" from="272042143" to="306240162#0"/>
	<trip id="carIn104131:1" type="default_016" depart="234.9" from="-306240162#1" to="-315358254#1"/>
	<trip id="h8191c1:3" type="default_016" depart="235.2" from="315358244" to="-201238724"/>
	<trip id="carIn17722:1" type="default_016" depart="236.4" from="272042143" to="306240162#0"/>
	<trip id="carIn13353:1" type="default_016" depart="237.7" from="-447569998#1" to="-315358244"/>
	<trip id="carIn70936:1" type="default_016" depart="237.9" from="24599188#0.94" to="-315358254#1"/>
	<trip id="carIn89697:1" type="default_016" depart="238.0" from="272042143" to="201238729#3"/>
	<trip id="h8222c1:5" type="default_016" depart="238.1" from="266565295#5" to="-201238724"/>
	<trip id="carIn62536:1" type="default_016" depart="238.9" from="-306240162#1" to="201956820"/>
	<trip id="carIn36687:1" type="default_016" depart="239.9" from="24599188#0.94" to="-315358254#1"/>
	<trip id="carIn39729:1" type="default_016" depart="240.0" from="128361102#0" to="201956820"/>
	<trip id="10_frequency1.43" type="bus" depart="240.0" from="28319300#3" to="32978638#0"/>
	<trip id="carIn63848:1" type="default_016" depart="240.2" from="-447569998#1" to="-315358244"/>
	<trip id="carIn39560:1" type="default_016" depart="240.4" from="-306240162#1" to="201956820"/>
	<trip id="carIn127325:1" type="default_016" depart="241.5" from="128361102#0" to="201956811#0"/>
	<trip id="carIn32833:1" type="default_016" depart="243.6" from="24599188#0.94" to="-315358254#1"/>
	<trip id="carIn116805:1" type="default_016" depart="244.0" from="266565295#5" to="18809673#0"/>
	<trip id="carIn20174:1" type="default_016" depart="245.2" from="-32978638#0" to="306240162#0"/>
	<trip id="carIn103218:1" type="default_016" depart="245.2" from="-306240162#1" to="272042145"/>
	<trip id="carIn114414:1" type="default_016" depart="245.3" from="-18809673#6" to="-83304175#2"/>
	<trip id="carIn94927:1" type="default_016" depart="246.6" from="-306240162#1" to="201956820"/>
	<trip id="carIn2162:1" type="default_016" depart="246.8" from="-32978638#0" to="306240162#0"/>
	<trip id="carIn68997:1" type="default_016" depart="248.0" from="-306240162#1" to="201956811#0"/>
	<trip id="carIn119881:1" type="default_016" depart="248.1" from="128361109#1" to="386687235"/>
	<trip id="carIn83006:1" type="default_016" depart="248.5" from="-32978638#0" to="201238729#3"/>
	<trip id="carIn92360:1" type="default_016" depart="249.7" from="128361109#1" to="386687235"/>
	<trip id="carIn101921:1" type="default_016" depart="250.1" from="-32978638#0" to="-315358244"/>
	<trip id="h2510c1:1" type="default_016" depart="251.0" from="-24634510#15" to="201956820"/>
	<trip id="h7759c1:3" type="default_016" depart="251.8" from="-32978638#0" to="-315358244"/>
	<trip id="carIn38599:1" type="default_016" depart="253.0" from="128361102#0" to="201956811#0"/>
	<trip id="carIn120813:1" type="default_016" depart="255.6" from="24599188#0.94" to="-315358254#1"/>
	<trip id="carIn64958:1" type="default_016" depart="256.4" from="10425609#0" to="18809673#0"/>
	<trip id="carIn11138:1" type="default_016" depart="257.2" from="315358254#0" to="-266565295#5"/>
	<trip id="carIn79268:1" type="default_016" depart="257.3" from="-306240162#1" to="-315358254#1"/>
	<trip id="h2996c1:3" type="default_016" depart="258.0" from="22879845" to="-315358254#1"/>
	<trip id="carIn43306:1" type="default_016" depart="258.8" from="-306240162#1" to="386687235"/>
	<trip id="carIn20516:1" type="default_016" depart="258.9" from="315358254#0" to="-266565295#5"/>
	<trip id="h19314c2:1" type="default_016" depart="260.0" from="128361109#1" to="386687235"/>
	<trip id="h4943c1:3" type="default_016" depart="261.0" from="-399835085#0" to="201238729#3"/>
	<trip id="randUni24217:1" type="random_016" depart="261.2" from="124812856#0" to="18809673#0"/>
	<trip id="h7032c2:3" type="default_016" depart="262.6" from="315358244" to="26677541"/>
	<trip id="h21606c1:3" type="default_016" depart="263.2" from="315358254#0" to="201956820"/>
	<trip id="randUni13258:1" type="random_016" depart="263.6" from="-173169611#0" to="386687235"/>