<?xml version="1.0" encoding="UTF-8"?>

<!-- generated on 2023-10-13 10:59:27.472639 by randomTrips.py v1_18_0+0000-03ecfdea036
<configuration>
    <net-file value="nets/beyers/beyers.net.xml"/>
    <output-trip-file value="nets/beyers/beyers_rand.rou.xml"/>
    <lanes value="True"/>
    <fringe-factor value="10"/>
    <random value="True"/>
    <min-distance value="100.0"/>
    <validate value="True"/>
    <insertion-rate value="3000.0 5000.0 3000.0"/>
    <random-depart value="True"/>
    <duarouter-remove-loops value="true"/>
</configuration>
-->

<!-- generated on 2023-10-13 10:59:27 by Eclipse SUMO duarouter Version 1.18.0
<configuration xmlns:xsi="http://www.w3.org/2001/XMLSchema-instance" xsi:noNamespaceSchemaLocation="http://sumo.dlr.de/xsd/duarouterConfiguration.xsd">

    <input>
        <net-file value="nets/beyers/beyers.net.xml"/>
        <route-files value="nets/beyers/beyers_rand.rou.xml"/>
    </input>

    <output>
        <output-file value="nets/beyers/beyers_rand.rou.xml.tmp"/>
        <alternatives-output value="NUL"/>
        <write-trips value="true"/>
    </output>

    <processing>
        <remove-loops value="true"/>
    </processing>

    <time>
        <begin value="0"/>
        <end value="3600.0"/>
    </time>

    <report>
        <no-warnings value="true"/>
        <ignore-errors value="true"/>
        <no-step-log value="true"/>
    </report>

</configuration>
-->

<routes xmlns:xsi="http://www.w3.org/2001/XMLSchema-instance" xsi:noNamespaceSchemaLocation="http://sumo.dlr.de/xsd/routes_file.xsd">
    <trip id="0" depart="0.60" from="542277773" to="603623650#2"/>
    <trip id="1" depart="2.20" from="-18905873#1" to="18906766#1"/>
    <trip id="2" depart="4.40" from="639201282" to="754589333#0"/>
    <trip id="3" depart="6.40" from="754618788" to="-18906787#1"/>
    <trip id="4" depart="12.80" from="536432068" to="535758968#2"/>
    <trip id="5" depart="14.00" from="-535758968#2" to="637316564#1"/>
    <trip id="6" depart="14.40" from="536432068" to="754576367#0"/>
    <trip id="7" depart="14.40" from="-754652102#3" to="10852173#12"/>
    <trip id="8" depart="15.20" from="-754618796#0" to="10852173#13"/>
    <trip id="9" depart="15.40" from="542277764" to="-E4"/>
    <trip id="10" depart="16.60" from="639201259#0" to="639201251#0"/>
    <trip id="11" depart="18.40" from="536432068" to="639201274#0"/>
    <trip id="12" depart="18.80" from="-19657447#1" to="-754868129"/>
    <trip id="13" depart="18.80" from="E3" to="639201263"/>
    <trip id="15" depart="21.00" from="E3" to="-E4"/>
    <trip id="16" depart="22.80" from="754618796#1" to="754652102#4"/>
    <trip id="17" depart="22.80" from="637316557" to="-639201251#2"/>
    <trip id="19" depart="27.80" from="722535260#0" to="19657447#3"/>
    <trip id="20" depart="30.00" from="18906825#0" to="639201247"/>
    <trip id="21" depart="31.40" from="536432068" to="-E11"/>
    <trip id="22" depart="31.80" from="637316557" to="18906766#4"/>
    <trip id="23" depart="33.00" from="639201253" to="639201283"/>
    <trip id="24" depart="33.20" from="E0" to="-18905873#5"/>
    <trip id="25" depart="34.40" from="639201279" to="542277765"/>
    <trip id="26" depart="35.00" from="639201271" to="542277765"/>
    <trip id="27" depart="35.00" from="-18906808#1" to="18906766#1"/>
    <trip id="28" depart="35.60" from="-18906766#4" to="639201248"/>
    <trip id="29" depart="36.00" from="639201258" to="500175656#1"/>
    <trip id="30" depart="37.20" from="639201263" to="639201255"/>
    <trip id="31" depart="37.60" from="-754652102#4" to="637316564#1"/>
    <trip id="32" depart="38.20" from="18906808#2" to="639201274#0"/>
    <trip id="33" depart="38.60" from="639201244" to="639201258"/>
    <trip id="34" depart="38.80" from="500175656#1" to="-E4"/>
    <trip id="35" depart="41.60" from="23149187#0" to="603623650#2"/>
    <trip id="36" depart="42.00" from="-535758968#2" to="-18906798#0"/>
    <trip id="37" depart="43.60" from="639201273" to="-18906825#0"/>
    <trip id="38" depart="44.00" from="639201279" to="639201274#0"/>
    <trip id="39" depart="45.00" from="E4" to="615578024"/>
    <trip id="40" depart="49.00" from="542277761" to="-E2"/>
    <trip id="41" depart="49.20" from="754618795#0" to="639201248"/>
    <trip id="42" depart="49.60" from="536432068" to="-10852169#3"/>
    <trip id="43" depart="51.60" from="-10852173#13" to="603623650#2"/>
    <trip id="44" depart="53.20" from="639201265" to="-18905873#0"/>
    <trip id="45" depart="53.20" from="536432068" to="18906792#0"/>
    <trip id="46" depart="55.00" from="E3" to="637316564#1"/>
    <trip id="47" depart="55.80" from="642215505#0" to="639201281"/>
    <trip id="48" depart="57.60" from="639201278#0" to="18906766#4"/>
    <trip id="49" depart="58.60" from="639201284#1" to="637316564#1"/>
    <trip id="51" depart="61.00" from="-E10" to="-E2"/>
    <trip id="52" depart="66.40" from="-10852173#11" to="535758968#2"/>
    <trip id="53" depart="68.80" from="-10852173#13" to="639201277"/>
    <trip id="54" depart="68.80" from="-603623650#2" to="-1119548224"/>
    <trip id="55" depart="69.80" from="639201258" to="639201278#0"/>
    <trip id="56" depart="70.00" from="-10852173#13" to="637315177#0"/>
    <trip id="57" depart="71.00" from="-10852173#11" to="-E4"/>
    <trip id="58" depart="71.40" from="500175656#1" to="535758968#2"/>
    <trip id="59" depart="71.60" from="10852173#8" to="18906766#4"/>
    <trip id="60" depart="72.60" from="615578024" to="615578026"/>
    <trip id="61" depart="73.60" from="542277772" to="535758968#2"/>
    <trip id="62" depart="75.00" from="-603623650#2" to="639201277"/>
    <trip id="63" depart="76.20" from="639201281" to="-E0"/>
    <trip id="65" depart="77.20" from="-E6" to="-18906805#0"/>
    <trip id="66" depart="78.20" from="18905873#2" to="639201261"/>
    <trip id="68" depart="80.60" from="639201265" to="-18906825#0"/>
    <trip id="69" depart="81.00" from="542277764" to="639201264#0"/>
    <trip id="70" depart="81.20" from="-603623650#2" to="639201242"/>
    <trip id="71" depart="83.80" from="767870347" to="767870336"/>
    <trip id="72" depart="84.20" from="639201283" to="18905909#0"/>
    <trip id="73" depart="84.80" from="E3" to="639201278#0"/>
    <trip id="74" depart="85.60" from="10852169#2" to="-E0"/>
    <trip id="75" depart="86.60" from="-603623650#2" to="639201277"/>
    <trip id="76" depart="87.20" from="-18906766#4" to="-754618796#0"/>
    <trip id="77" depart="88.20" from="615578026" to="-E3"/>
    <trip id="78" depart="88.40" from="-726161514#0" to="639201255"/>
    <trip id="79" depart="89.40" from="639201265" to="-18905873#0"/>
    <trip id="80" depart="90.00" from="639201271" to="637316564#1"/>
    <trip id="81" depart="90.60" from="639201274#0" to="-754618795#1"/>
    <trip id="82" depart="91.20" from="E8" to="-754618796#1"/>
    <trip id="83" depart="92.80" from="-500175656#2" to="18906803"/>
    <trip id="84" depart="95.40" from="639201277" to="639201257"/>
    <trip id="85" depart="96.20" from="-18906808#1" to="639201238#2"/>
    <trip id="86" depart="96.80" from="639201277" to="639201254"/>
    <trip id="88" depart="97.80" from="767870344" to="-18905873#1"/>
    <trip id="89" depart="98.00" from="722535260#1" to="767870344"/>
    <trip id="90" depart="99.40" from="722535260#1" to="639201255"/>
    <trip id="91" depart="99.80" from="639201258" to="-E9"/>
    <trip id="92" depart="103.80" from="542277773" to="22330727"/>
    <trip id="93" depart="105.40" from="10852173#0" to="10852173#13"/>
    <trip id="94" depart="106.00" from="639201277" to="535758968#0"/>
    <trip id="95" depart="107.00" from="18905873#0" to="722535260#1"/>
    <trip id="96" depart="107.20" from="637316557" to="18906766#4"/>
    <trip id="97" depart="107.40" from="639201281" to="754618794"/>
    <trip id="98" depart="108.00" from="542277764" to="-542277771"/>
    <trip id="99" depart="111.20" from="637316557" to="754589333#0"/>
    <trip id="100" depart="111.40" from="18906803" to="637316564#1"/>
    <trip id="101" depart="112.20" from="-722535260#0" to="637315177#3"/>
    <trip id="102" depart="112.60" from="639201244" to="10852173#13"/>
    <trip id="103" depart="112.80" from="-754652102#4" to="637315177#3"/>
    <trip id="104" depart="114.00" from="18906825#0" to="603623650#2"/>
    <trip id="105" depart="115.80" from="-19657447#4" to="-23149187#1"/>
    <trip id="106" depart="117.00" from="637316557" to="-E3"/>
    <trip id="107" depart="118.00" from="-535758968#2" to="615578024"/>
    <trip id="108" depart="119.20" from="-768096367#1" to="-18906825#0"/>
    <trip id="109" depart="120.20" from="-18906766#4" to="10852173#13"/>
    <trip id="110" depart="121.00" from="-18906808#0" to="542277772"/>
    <trip id="111" depart="121.60" from="18905909#1" to="-768096367#0"/>
    <trip id="112" depart="121.80" from="18906805#0" to="-542277771"/>
    <trip id="114" depart="122.60" from="639201246#1" to="-18906798#1"/>
    <trip id="115" depart="124.20" from="542277764" to="637316564#1"/>
    <trip id="116" depart="125.00" from="E0" to="639201255"/>
    <trip id="118" depart="127.40" from="E3" to="639201246#1"/>
    <trip id="119" depart="130.80" from="18906825#0" to="639201238#2"/>
    <trip id="120" depart="132.00" from="E4" to="639201260#0"/>
    <trip id="121" depart="133.00" from="-10852173#13" to="-E4"/>
    <trip id="122" depart="134.00" from="639201244" to="639201280"/>
    <trip id="124" depart="136.00" from="768096367#1" to="639201248"/>
    <trip id="125" depart="136.20" from="18906808#2" to="637316564#1"/>
    <trip id="126" depart="138.40" from="-754652102#4" to="767870345"/>
    <trip id="127" depart="139.00" from="-603623650#2" to="639201264#0"/>
    <trip id="128" depart="139.20" from="E3" to="639201238#2"/>
    <trip id="129" depart="141.40" from="-10852169#1" to="-E0"/>
    <trip id="130" depart="141.80" from="615578024" to="-18906816#1"/>
    <trip id="131" depart="146.60" from="754618796#1" to="603623650#2"/>
    <trip id="132" depart="149.00" from="639201263" to="-E11"/>
    <trip id="133" depart="149.80" from="E4" to="639201279"/>
    <trip id="134" depart="154.60" from="536432068" to="637316564#1"/>
    <trip id="135" depart="154.80" from="18905873#0" to="535758968#2"/>
    <trip id="136" depart="156.00" from="18906825#0" to="639201238#2"/>
    <trip id="137" depart="156.20" from="754589333#0" to="639201238#2"/>
    <trip id="138" depart="157.20" from="-603623650#2" to="639201271"/>
    <trip id="139" depart="157.80" from="639201255" to="754618796#0"/>
    <trip id="140" depart="158.60" from="18906827" to="-E4"/>
    <trip id="141" depart="158.60" from="754618787" to="603623650#2"/>
    <trip id="142" depart="158.80" from="-754652102#4" to="542277774"/>
    <trip id="143" depart="161.40" from="754589333#0" to="639201261"/>
    <trip id="144" depart="163.00" from="535758968#0" to="-18906805#0"/>
    <trip id="145" depart="164.60" from="637316557" to="767870336"/>
    <trip id="146" depart="169.00" from="639201274#0" to="639201264#0"/>
    <trip id="147" depart="172.60" from="-18906805#2" to="639201238#2"/>
    <trip id="149" depart="174.40" from="-754652102#3" to="639201253"/>
    <trip id="150" depart="177.20" from="-10852173#13" to="639201238#2"/>
    <trip id="151" depart="179.20" from="10852173#0" to="-19657447#2"/>
    <trip id="152" depart="179.20" from="637316557" to="-18905873#5"/>
    <trip id="153" depart="179.20" from="-535758968#2" to="639201251#0"/>
    <trip id="154" depart="180.00" from="-754868129" to="-10852173#11"/>
    <trip id="155" depart="181.60" from="639201240" to="639201274#0"/>
    <trip id="157" depart="186.80" from="-603623650#2" to="639201274#0"/>
    <trip id="158" depart="187.00" from="E11" to="-E1"/>
    <trip id="159" depart="187.00" from="-18906798#1" to="10852173#12"/>
    <trip id="160" depart="187.40" from="639201273" to="542277772"/>
    <trip id="161" depart="188.60" from="536432068" to="639201279"/>
    <trip id="162" depart="189.00" from="536432068" to="754652102#4"/>
    <trip id="164" depart="192.60" from="18905873#2" to="-23149187#1"/>
    <trip id="165" depart="193.00" from="642215505#0" to="18906792#0"/>
    <trip id="166" depart="193.20" from="-754618796#0" to="-10852173#0"/>
    <trip id="167" depart="193.60" from="639201273" to="-23149187#1"/>
    <trip id="168" depart="194.20" from="-603623650#2" to="10852173#13"/>
    <trip id="169" depart="194.40" from="18906813#0" to="642215505#0"/>
    <trip id="170" depart="197.00" from="637315175" to="-E3"/>
    <trip id="171" depart="197.00" from="-603623650#2" to="639201238#2"/>
    <trip id="172" depart="198.20" from="18906825#2" to="754576367#0"/>
    <trip id="173" depart="200.00" from="-639201242" to="-23149187#1"/>
    <trip id="176" depart="201.20" from="767870344" to="754589331"/>
    <trip id="177" depart="202.00" from="-10852173#13" to="615578024"/>
    <trip id="179" depart="205.80" from="E1" to="639201238#2"/>
    <trip id="180" depart="206.80" from="639201283" to="-E2"/>
    <trip id="181" depart="206.80" from="-639201251#2" to="639201277"/>
    <trip id="182" depart="208.40" from="639201262" to="639201255"/>
    <trip id="183" depart="208.80" from="-603623650#2" to="18905909#1"/>
    <trip id="184" depart="209.00" from="E11" to="639201279"/>
    <trip id="185" depart="209.20" from="18905873#0" to="18906766#1"/>
    <trip id="186" depart="210.20" from="E11" to="637316564#1"/>
    <trip id="187" depart="213.60" from="-E7" to="535758968#1"/>
    <trip id="188" depart="213.80" from="639201261" to="603623650#2"/>
    <trip id="189" depart="216.20" from="639201247" to="-726161514#0"/>
    <trip id="190" depart="216.80" from="615578024" to="-754618796#2"/>
    <trip id="191" depart="220.40" from="-603623650#2" to="615578024"/>
    <trip id="192" depart="222.80" from="639201273" to="-E1"/>
    <trip id="193" depart="223.60" from="-18906766#1" to="637316564#1"/>
    <trip id="194" depart="225.60" from="542277772" to="639201247"/>
    <trip id="195" depart="227.60" from="E2" to="1119548224"/>
    <trip id="196" depart="228.80" from="E2" to="637315172#0"/>
    <trip id="197" depart="229.40" from="-639201251#1" to="535758968#2"/>
    <trip id="198" depart="230.20" from="637316557" to="639201284#0"/>
    <trip id="199" depart="231.60" from="639201263" to="637316564#1"/>
    <trip id="200" depart="233.40" from="754868129" to="767870336"/>
    <trip id="201" depart="234.60" from="639201268#0" to="19657447#3"/>
    <trip id="202" depart="235.80" from="1119548224" to="639201278#0"/>
    <trip id="203" depart="236.00" from="18905909#0" to="754618788"/>
    <trip id="204" depart="236.00" from="639201242" to="603623650#2"/>
    <trip id="207" depart="242.00" from="E3" to="642215504#1"/>
    <trip id="208" depart="242.20" from="18906766#1" to="535758968#1"/>
    <trip id="209" depart="243.60" from="768096367#1" to="-10852173#11"/>
    <trip id="210" depart="244.00" from="536432068" to="603623650#2"/>
    <trip id="211" depart="245.20" from="-639201251#3" to="18906816#1"/>
    <trip id="212" depart="246.60" from="18906825#0" to="639201268#0"/>
    <trip id="213" depart="249.20" from="-18905873#5" to="10852173#13"/>
    <trip id="215" depart="251.40" from="-639201251#2" to="615578026"/>
    <trip id="216" depart="251.60" from="18906808#2" to="603623650#2"/>
    <trip id="217" depart="252.60" from="536432068" to="-E6"/>
    <trip id="218" depart="254.20" from="-754618795#1" to="639201254"/>
    <trip id="219" depart="254.40" from="23149187#0" to="639201238#2"/>
    <trip id="220" depart="255.20" from="-18906766#1" to="603623650#2"/>
    <trip id="221" depart="255.60" from="639201244" to="637316564#1"/>
    <trip id="222" depart="255.80" from="639201278#1" to="-E4"/>
    <trip id="224" depart="258.00" from="-535758968#2" to="639201263"/>
    <trip id="225" depart="258.60" from="18905873#0" to="-18906825#3"/>
    <trip id="226" depart="258.80" from="-18906803" to="-E11"/>
    <trip id="227" depart="259.80" from="18906825#0" to="639201269#0"/>
    <trip id="229" depart="260.20" from="E4" to="637316564#1"/>
    <trip id="231" depart="261.60" from="536432068" to="637316564#1"/>
    <trip id="232" depart="261.60" from="-E10" to="754652102#4"/>
    <trip id="233" depart="264.20" from="639201262" to="639201246#1"/>
    <trip id="234" depart="264.40" from="639201256" to="-10852173#11"/>
    <trip id="235" depart="265.00" from="-18906766#4" to="-E4"/>
    <trip id="237" depart="267.20" from="18906805#3" to="639201250"/>
    <trip id="238" depart="269.40" from="E3" to="639201262"/>
    <trip id="239" depart="271.40" from="637316557" to="637315176#0"/>
    <trip id="240" depart="272.00" from="637316557" to="535758968#2"/>
    <trip id="241" depart="272.20" from="23149187#0" to="E5"/>
    <trip id="242" depart="272.20" from="-754652102#3" to="-E1"/>
    <trip id="243" depart="272.20" from="-18906766#4" to="535758968#2"/>
    <trip id="244" depart="272.80" from="767870344" to="-10852169#1"/>
    <trip id="245" depart="274.40" from="639201261" to="637316564#1"/>
    <trip id="246" depart="275.00" from="-18906816#3" to="639201277"/>
    <trip id="247" depart="275.60" from="-500175656#2" to="639201258"/>
    <trip id="248" depart="277.00" from="-18906798#0" to="754618796#1"/>
    <trip id="249" depart="277.40" from="-10852173#13" to="-18906803"/>
    <trip id="250" depart="278.80" from="-18906766#4" to="-639201242"/>
    <trip id="251" depart="279.60" from="-E7" to="639201238#2"/>
    <trip id="253" depart="282.20" from="-754652102#3" to="-E11"/>
    <trip id="254" depart="282.60" from="19657447#0" to="754618796#1"/>
    <trip id="255" depart="282.60" from="-10852173#11" to="18906816#1"/>
    <trip id="256" depart="283.20" from="-603623650#2" to="23149187#2"/>
    <trip id="257" depart="283.60" from="-603623650#2" to="-E0"/>
    <trip id="258" depart="291.40" from="637316557" to="18906766#4"/>
    <trip id="259" depart="292.80" from="-E5" to="639201278#1"/>
    <trip id="260" depart="292.80" from="637315176#0" to="E6"/>
    <trip id="261" depart="293.00" from="754618792" to="542277765"/>
    <trip id="262" depart="293.20" from="536432068" to="542277773"/>
    <trip id="263" depart="293.40" from="-23149187#4" to="E7"/>
    <trip id="264" depart="293.60" from="639201269#0" to="637315177#0"/>
    <trip id="265" depart="294.20" from="639201266#0" to="754652102#4"/>
    <trip id="267" depart="295.80" from="-18906803" to="-E2"/>
    <trip id="269" depart="296.60" from="639201268#0" to="18906766#4"/>
    <trip id="270" depart="298.40" from="637316557" to="639201284#1"/>
    <trip id="272" depart="302.20" from="754618794" to="-542277771"/>
    <trip id="273" depart="303.60" from="-10852173#10" to="754652102#4"/>
    <trip id="274" depart="305.00" from="754618792" to="639201248"/>
    <trip id="275" depart="307.80" from="-18906766#4" to="-E7"/>
    <trip id="276" depart="309.40" from="-754652102#3" to="-768096367#0"/>
    <trip id="277" depart="310.20" from="-754652102#4" to="-18906816#0"/>
    <trip id="278" depart="312.80" from="-768096367#0" to="500175656#0"/>
    <trip id="279" depart="312.80" from="18905873#0" to="639201238#2"/>
    <trip id="280" depart="313.40" from="-10852173#13" to="639201269#0"/>
    <trip id="281" depart="313.40" from="18905873#0" to="637316564#1"/>
    <trip id="282" depart="314.00" from="-10852179#7" to="639201278#1"/>
    <trip id="283" depart="314.20" from="-10852173#13" to="-18906798#1"/>
    <trip id="284" depart="314.80" from="-19657447#1" to="542277771"/>
    <trip id="285" depart="315.00" from="754618790" to="18906792#0"/>
    <trip id="286" depart="315.60" from="637316557" to="639201274#1"/>
    <trip id="287" depart="315.80" from="19657447#0" to="639201271"/>
    <trip id="288" depart="317.00" from="639201281" to="639201259#0"/>
    <trip id="289" depart="318.80" from="639201268#0" to="639201258"/>
    <trip id="290" depart="319.00" from="E2" to="10852169#2"/>
    <trip id="291" depart="321.60" from="637315175" to="639201284#0"/>
    <trip id="292" depart="323.00" from="639201279" to="754618787"/>
    <trip id="293" depart="323.60" from="-639201242" to="-754576367#4"/>
    <trip id="294" depart="324.00" from="-18906816#1" to="-E1"/>
    <trip id="295" depart="326.20" from="-E9" to="639201280"/>
    <trip id="296" depart="326.60" from="18905873#2" to="639201271"/>
    <trip id="297" depart="330.20" from="536432068" to="637316564#1"/>
    <trip id="298" depart="331.40" from="-722535260#0" to="754652102#4"/>
    <trip id="299" depart="333.00" from="-754618796#1" to="639201238#2"/>
    <trip id="300" depart="333.60" from="18905873#2" to="639201238#2"/>
    <trip id="301" depart="333.60" from="-10852173#10" to="637316564#1"/>
    <trip id="302" depart="335.20" from="536432068" to="-E0"/>
    <trip id="303" depart="336.40" from="E3" to="-19657447#4"/>
    <trip id="304" depart="336.60" from="639201281" to="639201269#0"/>
    <trip id="305" depart="337.40" from="-18906805#2" to="639201238#2"/>
    <trip id="306" depart="338.20" from="-10852173#11" to="-E11"/>
    <trip id="307" depart="339.00" from="639201274#0" to="-E7"/>
    <trip id="308" depart="339.60" from="639201269#0" to="542277765"/>
    <trip id="309" depart="340.60" from="18906825#0" to="642215504#1"/>
    <trip id="310" depart="340.60" from="536432068" to="18905873#2"/>
    <trip id="311" depart="341.00" from="637316557" to="639201264#0"/>
    <trip id="312" depart="342.60" from="E2" to="-18905873#0"/>
    <trip id="313" depart="343.00" from="639201274#0" to="603623650#2"/>
    <trip id="314" depart="343.40" from="639201262" to="535758968#2"/>
    <trip id="315" depart="343.80" from="637316557" to="639201251#2"/>
    <trip id="316" depart="347.20" from="-10852173#13" to="639201238#2"/>
    <trip id="317" depart="347.20" from="10852169#1" to="-639201240"/>
    <trip id="318" depart="351.20" from="639201274#0" to="637316564#1"/>
    <trip id="319" depart="351.40" from="639201274#0" to="18906766#4"/>
    <trip id="320" depart="352.00" from="-754652102#4" to="-22330727"/>
    <trip id="321" depart="355.40" from="536432068" to="-754618795#1"/>
    <trip id="323" depart="359.20" from="639201271" to="10852173#13"/>
    <trip id="324" depart="360.00" from="642215504#1" to="10852169#3"/>
    <trip id="325" depart="363.80" from="E2" to="637316564#1"/>
    <trip id="326" depart="364.00" from="639201269#0" to="639201283"/>
    <trip id="327" depart="364.20" from="-18906808#0" to="639201263"/>
    <trip id="328" depart="369.80" from="E4" to="-18906825#0"/>
    <trip id="329" depart="370.00" from="639201272" to="615578024"/>
    <trip id="330" depart="370.40" from="639201255" to="637316564#1"/>
    <trip id="331" depart="370.60" from="-18906766#4" to="639201272"/>
    <trip id="332" depart="371.80" from="-18906766#4" to="603623650#2"/>
    <trip id="333" depart="372.00" from="-603623650#2" to="639201273"/>
    <trip id="334" depart="372.20" from="E3" to="639201283"/>
    <trip id="335" depart="374.00" from="-603623650#2" to="639201272"/>
    <trip id="336" depart="374.00" from="18906803" to="639201254"/>
    <trip id="337" depart="379.00" from="E11" to="754589331"/>
    <trip id="339" depart="379.40" from="639201263" to="-E0"/>
    <trip id="340" depart="379.40" from="637316557" to="639201273"/>
    <trip id="341" depart="379.80" from="-754652102#4" to="-E2"/>
    <trip id="342" depart="380.00" from="-603623650#2" to="639201246#1"/>
    <trip id="344" depart="382.40" from="637315176#0" to="-E2"/>
    <trip id="346" depart="386.40" from="-542277771" to="639201246#1"/>
    <trip id="347" depart="387.40" from="754618796#0" to="10852173#13"/>
    <trip id="348" depart="389.80" from="10852173#0" to="603623650#2"/>
    <trip id="349" depart="389.80" from="637316557" to="637315176#0"/>
    <trip id="350" depart="390.20" from="-603623650#2" to="535758968#2"/>
    <trip id="351" depart="391.00" from="-637315177#2" to="754589331"/>
    <trip id="352" depart="394.80" from="536432068" to="639201280"/>
    <trip id="353" depart="397.60" from="-10852173#13" to="18906808#0"/>
    <trip id="354" depart="397.80" from="18905873#0" to="-768096367#0"/>
    <trip id="355" depart="398.60" from="639201244" to="-18906798#1"/>
    <trip id="356" depart="400.20" from="-754868129" to="-18906825#3"/>
    <trip id="357" depart="401.60" from="637316557" to="-18905873#5"/>
    <trip id="358" depart="401.80" from="18906798#0" to="-500175656#2"/>
    <trip id="359" depart="402.40" from="639201254" to="639201238#2"/>
    <trip id="361" depart="406.40" from="E11" to="726161514#0"/>
    <trip id="362" depart="406.40" from="754618793" to="637315177#0"/>
    <trip id="364" depart="408.80" from="639201280" to="639201283"/>
    <trip id="366" depart="409.60" from="637316557" to="-542277771"/>
    <trip id="367" depart="409.60" from="-535758968#2" to="-E4"/>
    <trip id="368" depart="413.40" from="-535758968#2" to="18906816#0"/>
    <trip id="369" depart="420.00" from="18906805#3" to="E9"/>
    <trip id="371" depart="422.20" from="615578026" to="-18906816#3"/>
    <trip id="372" depart="422.40" from="754618794" to="10852173#12"/>
    <trip id="373" depart="423.60" from="639201278#1" to="-E1"/>
    <trip id="374" depart="425.40" from="E2" to="637315177#0"/>
    <trip id="375" depart="426.00" from="-18906766#4" to="-23149187#1"/>
    <trip id="376" depart="426.80" from="18905873#0" to="-E0"/>
    <trip id="377" depart="426.80" from="639201265" to="639201277"/>
    <trip id="378" depart="427.80" from="637316557" to="639201271"/>
    <trip id="379" depart="429.00" from="E11" to="615578026"/>
    <trip id="380" depart="432.00" from="-10852173#13" to="-23149187#1"/>
    <trip id="381" depart="435.40" from="-E9" to="-18906808#0"/>
    <trip id="382" depart="436.20" from="726161514#0" to="-639201240"/>
    <trip id="383" depart="436.80" from="637316557" to="-E11"/>
    <trip id="384" depart="440.00" from="639201253" to="637316564#1"/>
    <trip id="385" depart="440.40" from="637316557" to="639201278#0"/>
    <trip id="386" depart="441.60" from="18906816#1" to="-754618796#2"/>
    <trip id="387" depart="443.60" from="535758968#0" to="767870336"/>
    <trip id="388" depart="450.40" from="639201242" to="768096367#1"/>
    <trip id="390" depart="452.40" from="536432068" to="10852173#13"/>
    <trip id="391" depart="452.40" from="18906827" to="639201271"/>
    <trip id="392" depart="453.00" from="18905873#0" to="639201274#0"/>
    <trip id="393" depart="453.60" from="-18906792#0" to="-18905873#0"/>
    <trip id="394" depart="455.80" from="639201259#0" to="754652102#4"/>
    <trip id="395" depart="456.20" from="615578024" to="-18905873#0"/>
    <trip id="396" depart="456.60" from="E4" to="639201265"/>
    <trip id="397" depart="457.00" from="639201248" to="754589330#1"/>
    <trip id="398" depart="462.40" from="-535758968#2" to="639201238#2"/>
    <trip id="399" depart="463.80" from="18905873#0" to="-639201251#2"/>
    <trip id="400" depart="465.40" from="-10852173#13" to="639201238#2"/>
    <trip id="401" depart="466.80" from="754618796#1" to="639201279"/>
    <trip id="402" depart="467.40" from="639201262" to="18906798#0"/>
    <trip id="403" depart="468.40" from="-722535260#0" to="639201247"/>
    <trip id="404" depart="469.60" from="23149187#0" to="754652102#4"/>
    <trip id="405" depart="470.40" from="639201268#0" to="639201260#0"/>
    <trip id="406" depart="470.40" from="542277764" to="10852173#13"/>
    <trip id="407" depart="470.60" from="639201269#0" to="-E6"/>
    <trip id="408" depart="472.20" from="754868129" to="639201266#0"/>
    <trip id="409" depart="472.80" from="639201271" to="-E3"/>
    <trip id="410" depart="477.80" from="-603623650#2" to="18905909#1"/>
    <trip id="411" depart="478.40" from="637316557" to="615578024"/>
    <trip id="412" depart="480.00" from="639201257" to="542277772"/>
    <trip id="413" depart="480.60" from="536432068" to="-18906825#0"/>
    <trip id="414" depart="482.00" from="E2" to="639201277"/>
    <trip id="415" depart="483.40" from="639201282" to="-E2"/>
    <trip id="418" depart="487.00" from="E2" to="-18905873#5"/>
    <trip id="419" depart="487.00" from="-722535260#0" to="639201247"/>
    <trip id="420" depart="487.20" from="767870346" to="10852173#13"/>
    <trip id="421" depart="489.40" from="-603623650#2" to="726161512#1"/>
    <trip id="422" depart="489.60" from="639201272" to="615578024"/>
    <trip id="423" depart="490.60" from="18906825#0" to="10852179#7"/>
    <trip id="424" depart="490.60" from="639201240" to="-722535260#1"/>
    <trip id="425" depart="491.20" from="E5" to="-18905873#1"/>
    <trip id="426" depart="492.00" from="639201284#0" to="639201238#2"/>
    <trip id="427" depart="492.40" from="639201278#0" to="-E1"/>
    <trip id="428" depart="492.80" from="542277764" to="754652102#1"/>
    <trip id="429" depart="493.00" from="E2" to="-22330727"/>
    <trip id="431" depart="494.00" from="10852173#0" to="542277763"/>
    <trip id="432" depart="494.00" from="639201255" to="-639201242"/>
    <trip id="433" depart="496.40" from="536432068" to="-23149187#1"/>
    <trip id="434" depart="497.20" from="639201240" to="18906787#0"/>
    <trip id="435" depart="497.80" from="639201268#0" to="639201238#0"/>
    <trip id="436" depart="498.60" from="615578024" to="10852173#13"/>
    <trip id="437" depart="499.20" from="639201254" to="639201284#1"/>
    <trip id="438" depart="499.80" from="E11" to="637316564#1"/>
    <trip id="439" depart="500.00" from="639201265" to="639201279"/>
    <trip id="441" depart="504.60" from="536432068" to="-E4"/>
    <trip id="442" depart="506.00" from="536432068" to="-754576367#4"/>
    <trip id="443" depart="506.20" from="637316557" to="22330727"/>
    <trip id="444" depart="506.40" from="754618787" to="-E7"/>
    <trip id="445" depart="506.80" from="18905873#1" to="-E4"/>
    <trip id="446" depart="508.60" from="10852173#0" to="-18906825#0"/>
    <trip id="447" depart="509.80" from="E3" to="603623650#2"/>
    <trip id="448" depart="510.20" from="542277761" to="754589331"/>