<?xml version="1.0" encoding="UTF-8"?>

<!-- generated on 2023-09-16 20:59:39 by Eclipse SUMO netedit Version 1.18.0
<configuration xmlns:xsi="http://www.w3.org/2001/XMLSchema-instance" xsi:noNamespaceSchemaLocation="http://sumo.dlr.de/xsd/neteditConfiguration.xsd">

    <input>
        <additional-files value="C:\Users\Micha\OneDrive\Documents\Wits\4th Year\Investigation Project (ELEN4012A)\Code\Multi_agent\nets\beyers\beyers.add.xml"/>
        <sumo-net-file value="C:\Users\Micha\OneDrive\Documents\Wits\4th Year\Investigation Project (ELEN4012A)\Code\Multi_agent\nets\beyers\beyers.net.xml"/>
    </input>

    <output>
        <output-file value="C:\Users\Micha\OneDrive\Documents\Wits\4th Year\Investigation Project (ELEN4012A)\Code\Multi_agent\nets\beyers\beyers.net.xml"/>
        <output.street-names value="true"/>
    </output>

    <processing>
        <geometry.min-radius.fix.railways value="false"/>
        <geometry.max-grade.fix value="false"/>
        <offset.disable-normalization value="true"/>
        <lefthand value="1"/>
    </processing>

    <junctions>
        <no-turnarounds value="true"/>
        <junctions.corner-detail value="5"/>
        <junctions.limit-turn-speed value="5.50"/>
        <rectangular-lane-cut value="0"/>
    </junctions>

    <pedestrian>
        <walkingareas value="0"/>
    </pedestrian>

</configuration>
-->

<net version="1.16" junctionCornerDetail="5" lefthand="true" limitTurnSpeed="5.50" xmlns:xsi="http://www.w3.org/2001/XMLSchema-instance" xsi:noNamespaceSchemaLocation="http://sumo.dlr.de/xsd/net_file.xsd">

    <location netOffset="-596100.92,2893569.98" convBoundary="870.50,1241.27,2462.77,3268.73" origBoundary="27.961363,-26.158179,27.997451,-26.127873" projParameter="+proj=utm +zone=35 +ellps=WGS84 +datum=WGS84 +units=m +no_defs"/>

    <type id="highway.primary" priority="12" numLanes="2" speed="27.78" disallow="tram rail_urban rail rail_electric rail_fast ship" oneway="0"/>
    <type id="highway.primary_link" priority="7" numLanes="1" speed="22.22" disallow="tram rail_urban rail rail_electric rail_fast ship" oneway="0"/>
    <type id="highway.residential" priority="3" numLanes="1" speed="13.89" disallow="tram rail_urban rail rail_electric rail_fast ship" oneway="0"/>
    <type id="highway.tertiary" priority="10" numLanes="1" speed="22.22" disallow="tram rail_urban rail rail_electric rail_fast ship" oneway="0"/>

    <edge id=":1542241020_0" function="internal">
        <lane id=":1542241020_0_0" index="0" disallow="tram rail_urban rail rail_electric rail_fast ship" speed="13.89" length="6.65" shape="1425.85,2789.87 1424.29,2791.03 1423.01,2791.53 1421.71,2792.01 1420.11,2793.12"/>
    </edge>
    <edge id=":1542241020_1" function="internal">
        <lane id=":1542241020_1_0" index="0" disallow="tram rail_urban rail rail_electric rail_fast ship" speed="12.74" length="6.04" shape="1422.23,2795.53 1423.62,2794.45 1424.72,2793.93 1425.95,2793.64 1427.70,2793.25"/>
    </edge>
    <edge id=":1542249310_0" function="internal">
        <lane id=":1542249310_0_0" index="0" disallow="tram rail_urban rail rail_electric rail_fast ship" speed="8.13" length="7.17" shape="1245.52,2814.54 1243.43,2813.17 1241.90,2811.91 1240.93,2810.73 1240.51,2809.65"/>
    </edge>
    <edge id=":1542249310_1" function="internal">
        <lane id=":1542249310_1_0" index="0" disallow="tram rail_urban rail rail_electric rail_fast ship" speed="22.22" length="8.33" shape="1245.52,2814.54 1237.97,2810.81"/>
        <lane id=":1542249310_1_1" index="1" disallow="tram rail_urban rail rail_electric rail_fast ship" speed="22.22" length="8.33" shape="1243.89,2817.29 1236.41,2813.61"/>
        <lane id=":1542249310_1_2" index="2" disallow="tram rail_urban rail rail_electric rail_fast ship" speed="22.22" length="8.33" shape="1242.25,2820.04 1234.85,2816.40"/>
    </edge>
    <edge id=":1542249310_4" function="internal">
        <lane id=":1542249310_4_0" index="0" disallow="tram rail_urban rail rail_electric rail_fast ship" speed="22.22" length="8.10" shape="1231.74,2821.99 1238.98,2825.54"/>
        <lane id=":1542249310_4_1" index="1" disallow="tram rail_urban rail rail_electric rail_fast ship" speed="22.22" length="8.10" shape="1233.30,2819.20 1240.62,2822.79"/>
    </edge>
    <edge id=":195516731_0" function="internal">
        <lane id=":195516731_0_0" index="0" disallow="tram rail_urban rail rail_electric rail_fast ship" speed="13.89" length="1.32" shape="1579.60,2519.82 1579.32,2519.55 1579.11,2519.38 1578.89,2519.23 1578.55,2519.04"/>
    </edge>
    <edge id=":195516731_1" function="internal">
        <lane id=":195516731_1_0" index="0" disallow="tram rail_urban rail rail_electric rail_fast ship" speed="13.89" length="0.44" shape="1577.00,2521.84 1577.11,2521.90 1577.19,2521.95 1577.26,2522.01 1577.35,2522.10"/>
    </edge>
    <edge id=":195516837_0" function="internal">
        <lane id=":195516837_0_0" index="0" disallow="tram rail_urban rail rail_electric rail_fast ship" speed="6.49" length="9.03" shape="1519.48,2642.06 1517.99,2644.04 1516.22,2645.06 1514.18,2645.13 1511.87,2644.23"/>
    </edge>
    <edge id=":195516837_1" function="internal">
        <lane id=":195516837_1_0" index="0" disallow="tram rail_urban rail rail_electric rail_fast ship" speed="13.89" length="14.41" shape="1519.48,2642.06 1512.46,2654.65"/>
    </edge>
    <edge id=":195516837_2" function="internal">
        <lane id=":195516837_2_0" index="0" disallow="tram rail_urban rail rail_electric rail_fast ship" speed="13.89" length="14.44" shape="1515.25,2656.22 1522.28,2643.61"/>
    </edge>
    <edge id=":195516837_3" function="internal">
        <lane id=":195516837_3_0" index="0" disallow="tram rail_urban rail rail_electric rail_fast ship" speed="8.00" length="4.10" shape="1515.25,2656.22 1516.66,2652.60 1516.65,2652.39"/>
    </edge>
    <edge id=":195516837_6" function="internal">
        <lane id=":195516837_6_0" index="0" disallow="tram rail_urban rail rail_electric rail_fast ship" speed="8.00" length="10.12" shape="1516.65,2652.39 1516.57,2649.39 1514.97,2646.60 1511.87,2644.23"/>
    </edge>
    <edge id=":195516837_4" function="internal">
        <lane id=":195516837_4_0" index="0" disallow="tram rail_urban rail rail_electric rail_fast ship" speed="6.51" length="9.05" shape="1510.31,2647.02 1512.28,2648.53 1513.30,2650.30 1513.36,2652.35 1512.46,2654.65"/>
    </edge>
    <edge id=":195516837_5" function="internal">
        <lane id=":195516837_5_0" index="0" disallow="tram rail_urban rail rail_electric rail_fast ship" speed="7.99" length="14.22" shape="1510.31,2647.02 1513.95,2648.43 1517.15,2648.33 1519.93,2646.72 1522.28,2643.61"/>
    </edge>
    <edge id=":195516862_0" function="internal">
        <lane id=":195516862_0_0" index="0" disallow="tram rail_urban rail rail_electric rail_fast ship" speed="6.26" length="9.05" shape="1568.71,2407.57 1566.84,2409.26 1564.93,2409.86 1562.99,2409.38 1561.01,2407.82"/>
    </edge>
    <edge id=":195516862_1" function="internal">
        <lane id=":195516862_1_0" index="0" disallow="tram rail_urban rail rail_electric rail_fast ship" speed="8.48" length="14.38" shape="1568.71,2407.57 1566.54,2410.98 1565.78,2414.28 1566.42,2417.46 1568.48,2420.54"/>
    </edge>
    <edge id=":195516862_2" function="internal">
        <lane id=":195516862_2_0" index="0" disallow="tram rail_urban rail rail_electric rail_fast ship" speed="7.08" length="9.72" shape="1570.84,2418.38 1569.50,2416.34 1569.10,2414.20 1569.66,2411.95 1571.17,2409.61"/>
    </edge>
    <edge id=":195516862_3" function="internal">
        <lane id=":195516862_3_0" index="0" disallow="tram rail_urban rail rail_electric rail_fast ship" speed="16.67" length="14.43" shape="1570.84,2418.38 1561.01,2407.82"/>
    </edge>
    <edge id=":195516862_4" function="internal">
        <lane id=":195516862_4_0" index="0" disallow="tram rail_urban rail rail_electric rail_fast ship" speed="16.67" length="14.37" shape="1558.69,2410.01 1568.48,2420.54"/>
    </edge>
    <edge id=":195516862_5" function="internal">
        <lane id=":195516862_5_0" index="0" disallow="tram rail_urban rail rail_electric rail_fast ship" speed="7.80" length="4.09" shape="1558.69,2410.01 1561.89,2412.56"/>
    </edge>
    <edge id=":195516862_6" function="internal">
        <lane id=":195516862_6_0" index="0" disallow="tram rail_urban rail rail_electric rail_fast ship" speed="7.80" length="10.58" shape="1561.89,2412.56 1565.04,2413.34 1568.14,2412.35 1571.17,2409.61"/>
    </edge>
    <edge id=":195516878_0" function="internal">
        <lane id=":195516878_0_0" index="0" disallow="tram rail_urban rail rail_electric rail_fast ship" speed="6.71" length="9.23" shape="1698.79,2548.68 1696.62,2550.03 1694.53,2550.41 1692.52,2549.84 1690.61,2548.30"/>
    </edge>
    <edge id=":195516878_1" function="internal">
        <lane id=":195516878_1_0" index="0" disallow="tram rail_urban rail rail_electric rail_fast ship" speed="7.97" length="14.26" shape="1698.79,2548.68 1696.15,2551.58 1695.09,2554.61 1695.61,2557.78 1697.70,2561.09"/>
    </edge>
    <edge id=":195516878_2" function="internal">
        <lane id=":195516878_2_0" index="0" disallow="tram rail_urban rail rail_electric rail_fast ship" speed="6.47" length="9.03" shape="1700.14,2559.01 1698.81,2556.91 1698.48,2554.91 1699.16,2552.98 1700.83,2551.15"/>
    </edge>
    <edge id=":195516878_3" function="internal">
        <lane id=":195516878_3_0" index="0" disallow="tram rail_urban rail rail_electric rail_fast ship" speed="16.67" length="14.33" shape="1700.14,2559.01 1690.61,2548.30"/>
    </edge>
    <edge id=":195516878_4" function="internal">
        <lane id=":195516878_4_0" index="0" disallow="tram rail_urban rail rail_electric rail_fast ship" speed="16.67" length="14.20" shape="1688.26,2550.48 1697.70,2561.09"/>
    </edge>
    <edge id=":195516878_5" function="internal">
        <lane id=":195516878_5_0" index="0" disallow="tram rail_urban rail rail_electric rail_fast ship" speed="8.17" length="3.80" shape="1688.26,2550.48 1691.22,2552.86"/>
    </edge>
    <edge id=":195516878_6" function="internal">
        <lane id=":195516878_6_0" index="0" disallow="tram rail_urban rail rail_electric rail_fast ship" speed="8.17" length="10.36" shape="1691.22,2552.86 1694.30,2553.77 1697.51,2553.20 1700.83,2551.15"/>
    </edge>
    <edge id=":195516908_0" function="internal">
        <lane id=":195516908_0_0" index="0" disallow="tram rail_urban rail rail_electric rail_fast ship" speed="16.67" length="14.43" shape="1734.42,2603.68 1726.21,2591.82"/>
    </edge>
    <edge id=":195516908_1" function="internal">
        <lane id=":195516908_1_0" index="0" disallow="tram rail_urban rail rail_electric rail_fast ship" speed="7.72" length="4.19" shape="1734.42,2603.68 1731.55,2600.63"/>
    </edge>
    <edge id=":195516908_6" function="internal">
        <lane id=":195516908_6_0" index="0" disallow="tram rail_urban rail rail_electric rail_fast ship" speed="7.72" length="10.71" shape="1731.55,2600.63 1728.52,2599.44 1725.32,2600.10 1721.97,2602.62"/>
    </edge>
    <edge id=":195516908_2" function="internal">
        <lane id=":195516908_2_0" index="0" disallow="tram rail_urban rail rail_electric rail_fast ship" speed="6.16" length="9.05" shape="1724.24,2604.88 1726.28,2603.35 1728.22,2602.94 1730.06,2603.67 1731.81,2605.52"/>
    </edge>
    <edge id=":195516908_3" function="internal">
        <lane id=":195516908_3_0" index="0" disallow="tram rail_urban rail rail_electric rail_fast ship" speed="8.70" length="14.50" shape="1724.24,2604.88 1726.78,2601.63 1727.96,2598.37 1727.76,2595.10 1726.21,2591.82"/>
    </edge>
    <edge id=":195516908_4" function="internal">
        <lane id=":195516908_4_0" index="0" disallow="tram rail_urban rail rail_electric rail_fast ship" speed="7.33" length="10.02" shape="1723.56,2593.62 1724.58,2595.83 1724.66,2598.07 1723.79,2600.33 1721.97,2602.62"/>
    </edge>
    <edge id=":195516908_5" function="internal">
        <lane id=":195516908_5_0" index="0" disallow="tram rail_urban rail rail_electric rail_fast ship" speed="16.67" length="14.48" shape="1723.56,2593.62 1731.81,2605.52"/>
    </edge>
    <edge id=":195517446_0" function="internal">
        <lane id=":195517446_0_0" index="0" disallow="tram rail_urban rail rail_electric rail_fast ship" speed="6.53" length="9.05" shape="1962.72,1410.15 1960.30,1410.70 1958.28,1410.36 1956.66,1409.11 1955.44,1406.95"/>
    </edge>
    <edge id=":195517446_1" function="internal">
        <lane id=":195517446_1_0" index="0" disallow="tram rail_urban rail rail_electric rail_fast ship" speed="13.89" length="14.47" shape="1962.72,1410.15 1949.25,1415.43"/>
    </edge>
    <edge id=":195517446_2" function="internal">
        <lane id=":195517446_2_0" index="0" disallow="tram rail_urban rail rail_electric rail_fast ship" speed="8.00" length="14.22" shape="1962.72,1410.15 1959.32,1412.05 1957.35,1414.58 1956.80,1417.75 1957.69,1421.55"/>
    </edge>
    <edge id=":195517446_3" function="internal">
        <lane id=":195517446_3_0" index="0" disallow="tram rail_urban rail rail_electric rail_fast ship" speed="6.50" length="9.05" shape="1960.67,1420.39 1960.11,1417.97 1960.45,1415.95 1961.70,1414.34 1963.87,1413.13"/>
    </edge>
    <edge id=":195517446_4" function="internal">
        <lane id=":195517446_4_0" index="0" disallow="tram rail_urban rail rail_electric rail_fast ship" speed="16.67" length="14.42" shape="1960.67,1420.39 1955.44,1406.95"/>
    </edge>
    <edge id=":195517446_5" function="internal">
        <lane id=":195517446_5_0" index="0" disallow="tram rail_urban rail rail_electric rail_fast ship" speed="7.98" length="4.08" shape="1960.67,1420.39 1958.76,1416.99 1958.62,1416.88"/>
    </edge>
    <edge id=":195517446_12" function="internal">
        <lane id=":195517446_12_0" index="0" disallow="tram rail_urban rail rail_electric rail_fast ship" speed="7.98" length="10.15" shape="1958.62,1416.88 1956.21,1415.03 1953.05,1414.51 1949.25,1415.43"/>
    </edge>
    <edge id=":195517446_6" function="internal">
        <lane id=":195517446_6_0" index="0" disallow="tram rail_urban rail rail_electric rail_fast ship" speed="6.49" length="9.03" shape="1950.44,1418.40 1952.85,1417.82 1954.86,1418.15 1956.47,1419.39 1957.69,1421.55"/>
    </edge>
    <edge id=":195517446_7" function="internal">
        <lane id=":195517446_7_0" index="0" disallow="tram rail_urban rail rail_electric rail_fast ship" speed="13.89" length="14.42" shape="1950.44,1418.40 1963.87,1413.13"/>
    </edge>
    <edge id=":195517446_8" function="internal">
        <lane id=":195517446_8_0" index="0" disallow="tram rail_urban rail rail_electric rail_fast ship" speed="8.03" length="14.22" shape="1950.44,1418.40 1953.82,1416.46 1955.78,1413.90 1956.32,1410.73 1955.44,1406.95"/>
    </edge>
    <edge id=":195517446_9" function="internal">
        <lane id=":195517446_9_0" index="0" disallow="tram rail_urban rail rail_electric rail_fast ship" speed="6.55" length="9.09" shape="1952.46,1408.12 1953.02,1410.53 1952.67,1412.55 1951.42,1414.19 1949.25,1415.43"/>
    </edge>
    <edge id=":195517446_10" function="internal">
        <lane id=":195517446_10_0" index="0" disallow="tram rail_urban rail rail_electric rail_fast ship" speed="16.67" length="14.41" shape="1952.46,1408.12 1957.69,1421.55"/>
    </edge>
    <edge id=":195517446_11" function="internal">
        <lane id=":195517446_11_0" index="0" disallow="tram rail_urban rail rail_electric rail_fast ship" speed="8.02" length="4.06" shape="1952.46,1408.12 1954.37,1411.50 1954.51,1411.60"/>
    </edge>
    <edge id=":195517446_13" function="internal">
        <lane id=":195517446_13_0" index="0" disallow="tram rail_urban rail rail_electric rail_fast ship" speed="8.02" length="10.14" shape="1954.51,1411.60 1956.91,1413.46 1960.07,1414.01 1963.87,1413.13"/>
    </edge>
    <edge id=":195517486_0" function="internal">
        <lane id=":195517486_0_0" index="0" disallow="tram rail_urban rail rail_electric rail_fast ship" speed="13.89" length="14.29" shape="2125.97,1356.66 2120.61,1343.41"/>
    </edge>
    <edge id=":195517486_1" function="internal">
        <lane id=":195517486_1_0" index="0" disallow="tram rail_urban rail rail_electric rail_fast ship" speed="8.08" length="3.85" shape="2125.97,1356.66 2123.99,1353.36"/>
    </edge>
    <edge id=":195517486_6" function="internal">
        <lane id=":195517486_6_0" index="0" disallow="tram rail_urban rail rail_electric rail_fast ship" speed="8.08" length="10.33" shape="2123.99,1353.36 2121.41,1351.45 2118.23,1350.94 2114.44,1351.82"/>
    </edge>
    <edge id=":195517486_2" function="internal">
        <lane id=":195517486_2_0" index="0" disallow="tram rail_urban rail rail_electric rail_fast ship" speed="6.60" length="9.12" shape="2115.59,1354.80 2118.03,1354.23 2120.09,1354.56 2121.75,1355.78 2123.02,1357.90"/>
    </edge>
    <edge id=":195517486_3" function="internal">
        <lane id=":195517486_3_0" index="0" disallow="tram rail_urban rail rail_electric rail_fast ship" speed="7.99" length="14.22" shape="2115.59,1354.80 2118.99,1352.90 2120.96,1350.37 2121.50,1347.21 2120.61,1343.41"/>
    </edge>
    <edge id=":195517486_4" function="internal">
        <lane id=":195517486_4_0" index="0" disallow="tram rail_urban rail rail_electric rail_fast ship" speed="6.49" length="9.03" shape="2117.63,1344.58 2118.20,1346.99 2117.85,1349.00 2116.60,1350.61 2114.44,1351.82"/>
    </edge>
    <edge id=":195517486_5" function="internal">
        <lane id=":195517486_5_0" index="0" disallow="tram rail_urban rail rail_electric rail_fast ship" speed="13.89" length="14.36" shape="2117.63,1344.58 2123.02,1357.90"/>
    </edge>
    <edge id=":195526090_0" function="internal">
        <lane id=":195526090_0_0" index="0" disallow="tram rail_urban rail rail_electric rail_fast ship" speed="16.67" length="0.27" shape="2413.76,1683.28 2413.66,1683.04"/>
        <lane id=":195526090_0_1" index="1" disallow="tram rail_urban rail rail_electric rail_fast ship" speed="16.67" length="0.27" shape="2410.79,1684.48 2410.68,1684.22"/>
    </edge>
    <edge id=":195526090_2" function="internal">
        <lane id=":195526090_2_0" index="0" disallow="tram rail_urban rail rail_electric rail_fast ship" speed="16.67" length="0.32" shape="2404.73,1686.56 2404.85,1686.87"/>
        <lane id=":195526090_2_1" index="1" disallow="tram rail_urban rail rail_electric rail_fast ship" speed="16.67" length="0.32" shape="2407.71,1685.39 2407.82,1685.68"/>
    </edge>
    <edge id=":195539021_0" function="internal">
        <lane id=":195539021_0_0" index="0" disallow="tram rail_urban rail rail_electric rail_fast ship" speed="6.51" length="9.04" shape="2079.32,1647.31 2076.91,1647.89 2074.89,1647.55 2073.27,1646.31 2072.05,1644.16"/>
    </edge>
    <edge id=":195539021_1" function="internal">
        <lane id=":195539021_1_0" index="0" disallow="tram rail_urban rail rail_electric rail_fast ship" speed="8.00" length="14.20" shape="2079.32,1647.31 2075.94,1649.24 2073.98,1651.78 2073.46,1654.94 2074.36,1658.73"/>
    </edge>
    <edge id=":195539021_2" function="internal">
        <lane id=":195539021_2_0" index="0" disallow="tram rail_urban rail rail_electric rail_fast ship" speed="6.50" length="9.03" shape="2077.34,1657.55 2076.76,1655.14 2077.10,1653.13 2078.34,1651.51 2080.49,1650.29"/>
    </edge>
    <edge id=":195539021_3" function="internal">
        <lane id=":195539021_3_0" index="0" disallow="tram rail_urban rail rail_electric rail_fast ship" speed="13.89" length="14.40" shape="2077.34,1657.55 2072.05,1644.16"/>
    </edge>
    <edge id=":195539021_4" function="internal">
        <lane id=":195539021_4_0" index="0" disallow="tram rail_urban rail rail_electric rail_fast ship" speed="13.89" length="14.40" shape="2069.07,1645.33 2074.36,1658.73"/>
    </edge>
    <edge id=":195539021_5" function="internal">
        <lane id=":195539021_5_0" index="0" disallow="tram rail_urban rail rail_electric rail_fast ship" speed="8.01" length="4.07" shape="2069.07,1645.33 2070.99,1648.71 2071.14,1648.82"/>
    </edge>
    <edge id=":195539021_6" function="internal">
        <lane id=":195539021_6_0" index="0" disallow="tram rail_urban rail rail_electric rail_fast ship" speed="8.01" length="10.13" shape="2071.14,1648.82 2073.54,1650.66 2076.71,1651.19 2080.49,1650.29"/>
    </edge>
    <edge id=":195540004_0" function="internal">
        <lane id=":195540004_0_0" index="0" disallow="tram rail_urban rail rail_electric rail_fast ship" speed="13.89" length="0.10" shape="2160.20,1615.50 2160.20,1615.50"/>
    </edge>
    <edge id=":195540004_1" function="internal">
        <lane id=":195540004_1_0" index="0" disallow="tram rail_urban rail rail_electric rail_fast ship" speed="13.89" length="0.10" shape="2161.38,1618.48 2161.38,1618.48"/>
    </edge>
    <edge id=":195540032_0" function="internal">
        <lane id=":195540032_0_0" index="0" disallow="tram rail_urban rail rail_electric rail_fast ship" speed="13.89" length="14.41" shape="2252.50,1588.65 2247.19,1575.25"/>
    </edge>
    <edge id=":195540032_1" function="internal">
        <lane id=":195540032_1_0" index="0" disallow="tram rail_urban rail rail_electric rail_fast ship" speed="8.01" length="4.08" shape="2252.50,1588.65 2250.57,1585.27 2250.43,1585.16"/>
    </edge>
    <edge id=":195540032_6" function="internal">
        <lane id=":195540032_6_0" index="0" disallow="tram rail_urban rail rail_electric rail_fast ship" speed="8.01" length="10.12" shape="2250.43,1585.16 2248.03,1583.32 2244.86,1582.79 2241.07,1583.69"/>
    </edge>
    <edge id=":195540032_2" function="internal">
        <lane id=":195540032_2_0" index="0" disallow="tram rail_urban rail rail_electric rail_fast ship" speed="6.51" length="9.04" shape="2242.25,1586.67 2244.66,1586.10 2246.67,1586.43 2248.29,1587.67 2249.52,1589.82"/>
    </edge>
    <edge id=":195540032_3" function="internal">
        <lane id=":195540032_3_0" index="0" disallow="tram rail_urban rail rail_electric rail_fast ship" speed="8.00" length="14.21" shape="2242.25,1586.67 2245.63,1584.74 2247.58,1582.20 2248.11,1579.03 2247.19,1575.25"/>
    </edge>
    <edge id=":195540032_4" function="internal">
        <lane id=":195540032_4_0" index="0" disallow="tram rail_urban rail rail_electric rail_fast ship" speed="6.50" length="9.03" shape="2244.22,1576.43 2244.80,1578.84 2244.47,1580.85 2243.23,1582.47 2241.07,1583.69"/>
    </edge>
    <edge id=":195540032_5" function="internal">
        <lane id=":195540032_5_0" index="0" disallow="tram rail_urban rail rail_electric rail_fast ship" speed="13.89" length="14.40" shape="2244.22,1576.43 2249.52,1589.82"/>
    </edge>
    <edge id=":195572916_0" function="internal">
        <lane id=":195572916_0_0" index="0" disallow="tram rail_urban rail rail_electric rail_fast ship" speed="7.85" length="10.50" shape="1335.51,2867.57 1332.97,2869.39 1330.53,2870.30 1328.18,2870.31 1325.93,2869.40"/>
    </edge>
    <edge id=":195572916_1" function="internal">
        <lane id=":195572916_1_0" index="0" disallow="tram rail_urban rail rail_electric rail_fast ship" speed="7.64" length="15.18" shape="1335.51,2867.57 1332.71,2870.85 1331.89,2874.02 1333.05,2877.09 1336.19,2880.04"/>
    </edge>
    <edge id=":195572916_2" function="internal">
        <lane id=":195572916_2_0" index="0" disallow="tram rail_urban rail rail_electric rail_fast ship" speed="6.06" length="9.07" shape="1338.03,2877.43 1336.15,2875.66 1335.46,2873.83 1335.95,2871.93 1337.62,2869.97"/>
    </edge>
    <edge id=":195572916_3" function="internal">
        <lane id=":195572916_3_0" index="0" disallow="tram rail_urban rail rail_electric rail_fast ship" speed="22.22" length="14.52" shape="1338.03,2877.43 1325.93,2869.40"/>
    </edge>
    <edge id=":195572916_4" function="internal">
        <lane id=":195572916_4_0" index="0" disallow="tram rail_urban rail rail_electric rail_fast ship" speed="22.22" length="14.32" shape="1324.25,2872.13 1336.19,2880.04"/>
    </edge>
    <edge id=":195572916_5" function="internal">
        <lane id=":195572916_5_0" index="0" disallow="tram rail_urban rail rail_electric rail_fast ship" speed="9.16" length="3.52" shape="1324.25,2872.13 1327.50,2873.48"/>
    </edge>
    <edge id=":195572916_6" function="internal">
        <lane id=":195572916_6_0" index="0" disallow="tram rail_urban rail rail_electric rail_fast ship" speed="9.16" length="11.09" shape="1327.50,2873.48 1330.81,2873.57 1334.18,2872.40 1337.62,2869.97"/>
    </edge>
    <edge id=":195573460_0" function="internal">
        <lane id=":195573460_0_0" index="0" disallow="tram rail_urban rail rail_electric rail_fast ship" speed="6.36" length="4.71" shape="2017.81,2306.09 2018.65,2305.21 2019.21,2304.22 2019.49,2303.12 2019.50,2301.90"/>
    </edge>
    <edge id=":195573460_1" function="internal">
        <lane id=":195573460_1_0" index="0" disallow="tram rail_urban rail rail_electric rail_fast ship" speed="4.05" length="1.57" shape="2016.32,2302.25 2016.31,2302.65 2016.22,2303.02 2016.03,2303.35 2015.75,2303.64"/>
    </edge>
    <edge id=":195573551_0" function="internal">
        <lane id=":195573551_0_0" index="0" disallow="tram rail_urban rail rail_electric rail_fast ship" speed="6.64" length="9.21" shape="1783.21,2478.45 1781.12,2479.75 1779.07,2480.07 1777.07,2479.41 1775.11,2477.76"/>
    </edge>
    <edge id=":195573551_1" function="internal">
        <lane id=":195573551_1_0" index="0" disallow="tram rail_urban rail rail_electric rail_fast ship" speed="16.67" length="14.41" shape="1783.21,2478.45 1772.20,2487.75"/>
    </edge>
    <edge id=":195573551_2" function="internal">
        <lane id=":195573551_2_0" index="0" disallow="tram rail_urban rail rail_electric rail_fast ship" speed="16.67" length="14.42" shape="1774.26,2490.19 1785.28,2480.90"/>
    </edge>
    <edge id=":195573551_3" function="internal">
        <lane id=":195573551_3_0" index="0" disallow="tram rail_urban rail rail_electric rail_fast ship" speed="7.94" length="4.11" shape="1774.26,2490.19 1776.89,2487.25 1776.94,2487.10"/>
    </edge>
    <edge id=":195573551_6" function="internal">
        <lane id=":195573551_6_0" index="0" disallow="tram rail_urban rail rail_electric rail_fast ship" speed="7.94" length="10.22" shape="1776.94,2487.10 1777.91,2484.20 1777.31,2481.03 1775.11,2477.76"/>
    </edge>
    <edge id=":195573551_4" function="internal">
        <lane id=":195573551_4_0" index="0" disallow="tram rail_urban rail rail_electric rail_fast ship" speed="6.43" length="9.03" shape="1772.74,2479.91 1774.13,2481.97 1774.50,2483.96 1773.86,2485.89 1772.20,2487.75"/>
    </edge>
    <edge id=":195573551_5" function="internal">
        <lane id=":195573551_5_0" index="0" disallow="tram rail_urban rail rail_electric rail_fast ship" speed="8.11" length="14.25" shape="1772.74,2479.91 1775.75,2482.43 1778.84,2483.44 1782.02,2482.93 1785.28,2480.90"/>
    </edge>
    <edge id=":195573608_0" function="internal">
        <lane id=":195573608_0_0" index="0" disallow="tram rail_urban rail rail_electric rail_fast ship" speed="6.68" length="9.25" shape="1705.82,2392.49 1703.63,2393.86 1701.54,2394.25 1699.54,2393.66 1697.64,2392.10"/>
    </edge>
    <edge id=":195573608_1" function="internal">
        <lane id=":195573608_1_0" index="0" disallow="tram rail_urban rail rail_electric rail_fast ship" speed="7.93" length="14.36" shape="1705.82,2392.49 1703.16,2395.43 1702.13,2398.48 1702.72,2401.64 1704.93,2404.93"/>
    </edge>
    <edge id=":195573608_2" function="internal">
        <lane id=":195573608_2_0" index="0" disallow="tram rail_urban rail rail_electric rail_fast ship" speed="6.42" length="9.04" shape="1707.30,2402.78 1705.91,2400.72 1705.54,2398.72 1706.19,2396.80 1707.86,2394.96"/>
    </edge>
    <edge id=":195573608_3" function="internal">
        <lane id=":195573608_3_0" index="0" disallow="tram rail_urban rail rail_electric rail_fast ship" speed="16.67" length="14.41" shape="1707.30,2402.78 1697.64,2392.10"/>
    </edge>
    <edge id=":195573608_4" function="internal">
        <lane id=":195573608_4_0" index="0" disallow="tram rail_urban rail rail_electric rail_fast ship" speed="16.67" length="14.41" shape="1695.26,2394.24 1704.93,2404.93"/>
    </edge>
    <edge id=":195573608_5" function="internal">
        <lane id=":195573608_5_0" index="0" disallow="tram rail_urban rail rail_electric rail_fast ship" speed="8.14" length="4.00" shape="1695.26,2394.24 1698.21,2396.68 1698.38,2396.73"/>
    </edge>
    <edge id=":195573608_6" function="internal">
        <lane id=":195573608_6_0" index="0" disallow="tram rail_urban rail rail_electric rail_fast ship" speed="8.14" length="10.26" shape="1698.38,2396.73 1701.30,2397.61 1704.51,2397.04 1707.86,2394.96"/>
    </edge>
    <edge id=":195573671_0" function="internal">
        <lane id=":195573671_0_0" index="0" disallow="tram rail_urban rail rail_electric rail_fast ship" speed="16.67" length="13.74" shape="1638.90,2321.27 1637.05,2324.30 1635.18,2327.04 1633.18,2329.69 1630.95,2332.45"/>
    </edge>
    <edge id=":195573671_1" function="internal">
        <lane id=":195573671_1_0" index="0" disallow="tram rail_urban rail rail_electric rail_fast ship" speed="9.10" length="3.49" shape="1638.90,2321.27 1637.62,2324.52"/>
    </edge>
    <edge id=":195573671_6" function="internal">
        <lane id=":195573671_6_0" index="0" disallow="tram rail_urban rail rail_electric rail_fast ship" speed="9.10" length="10.77" shape="1637.62,2324.52 1637.55,2327.78 1638.70,2331.05 1641.07,2334.33"/>
    </edge>
    <edge id=":195573671_2" function="internal">
        <lane id=":195573671_2_0" index="0" disallow="tram rail_urban rail rail_electric rail_fast ship" speed="7.77" length="10.20" shape="1643.44,2332.18 1641.69,2329.79 1640.81,2327.44 1640.80,2325.13 1641.67,2322.88"/>
    </edge>
    <edge id=":195573671_3" function="internal">