<?xml version="1.0" encoding="UTF-8"?>

<!-- generated on 2023-09-12 23:34:25.518631 by randomTrips.py v1_18_0+0000-03ecfdea036
<configuration>
    <net-file value="beyers.net.xml"/>
    <output-trip-file value="beyers.rou.xml"/>
    <lanes value="True"/>
    <fringe-factor value="max"/>
    <random value="True"/>
    <min-distance value="500.0"/>
    <validate value="True"/>
    <end value="86400.0"/>
    <insertion-rate value="188.0 88.0 44.0 33.0 81.0 219.0 1081.0 1780.0 2148.0 2010.0 1849.0 1802.0 1922.0 1894.0 1708.0 1687.0 1688.0 1821.0 1952.0 1575.0 1157.0 766.0 565.0 368.0"/>
    <random-depart value="True"/>
    <duarouter-remove-loops value="true"/>
</configuration>
-->

<!-- generated on 2023-09-12 23:34:23 by Eclipse SUMO duarouter Version 1.18.0
<configuration xmlns:xsi="http://www.w3.org/2001/XMLSchema-instance" xsi:noNamespaceSchemaLocation="http://sumo.dlr.de/xsd/duarouterConfiguration.xsd">

    <input>
        <net-file value="beyers.net.xml"/>
        <route-files value="beyers.rou.xml"/>
    </input>

    <output>
        <output-file value="beyers.rou.xml.tmp"/>
        <alternatives-output value="NUL"/>
        <write-trips value="true"/>
    </output>

    <processing>
        <remove-loops value="true"/>
    </processing>

    <time>
        <begin value="0"/>
        <end value="86400.0"/>
    </time>

    <report>
        <no-warnings value="true"/>
        <ignore-errors value="true"/>
        <no-step-log value="true"/>
    </report>

</configuration>
-->

<routes xmlns:xsi="http://www.w3.org/2001/XMLSchema-instance" xsi:noNamespaceSchemaLocation="http://sumo.dlr.de/xsd/routes_file.xsd">
    <trip id="0" depart="3.21" from="-535758968#2" to="754652102#4"/>
    <trip id="1" depart="17.68" from="E0" to="-E3"/>
    <trip id="2" depart="29.23" from="637316557" to="10852173#13"/>
    <trip id="3" depart="30.49" from="-603623650#2" to="637316564#1"/>
    <trip id="5" depart="67.60" from="536432068" to="-23149187#1"/>
    <trip id="6" depart="84.40" from="E3" to="-18905873#0"/>
    <trip id="7" depart="90.98" from="-754652102#4" to="535758968#2"/>
    <trip id="8" depart="116.28" from="-603623650#2" to="-E3"/>
    <trip id="9" depart="163.34" from="E0" to="18906766#4"/>
    <trip id="10" depart="183.79" from="637316557" to="-E1"/>
    <trip id="11" depart="200.23" from="-603623650#2" to="535758968#2"/>
    <trip id="12" depart="204.09" from="E0" to="-E11"/>
    <trip id="13" depart="227.32" from="637316557" to="767870336"/>
    <trip id="14" depart="228.38" from="E11" to="637316564#1"/>
    <trip id="15" depart="229.36" from="637316557" to="-18905873#0"/>
    <trip id="16" depart="264.96" from="-603623650#2" to="767870336"/>
    <trip id="17" depart="296.17" from="536432068" to="-E2"/>
    <trip id="18" depart="339.70" from="542277764" to="637316564#1"/>
    <trip id="19" depart="351.21" from="-10852173#13" to="-23149187#1"/>
    <trip id="20" depart="367.83" from="18906825#0" to="637316564#1"/>
    <trip id="21" depart="424.68" from="536432068" to="603623650#2"/>
    <trip id="22" depart="449.81" from="E11" to="-18906825#0"/>
    <trip id="23" depart="458.11" from="536432068" to="-E3"/>
    <trip id="24" depart="461.13" from="637316557" to="-23149187#1"/>
    <trip id="26" depart="514.40" from="637316557" to="603623650#2"/>
    <trip id="28" depart="591.30" from="18905873#0" to="18906766#4"/>
    <trip id="29" depart="620.64" from="536432068" to="603623650#2"/>
    <trip id="30" depart="626.79" from="637316557" to="18906766#4"/>
    <trip id="31" depart="631.47" from="23149187#0" to="-E1"/>
    <trip id="32" depart="647.49" from="-535758968#2" to="-E1"/>
    <trip id="33" depart="678.49" from="-603623650#2" to="639201238#2"/>
    <trip id="35" depart="733.28" from="542277764" to="603623650#2"/>
    <trip id="36" depart="744.38" from="542277764" to="-E0"/>
    <trip id="37" depart="744.40" from="E3" to="637316564#1"/>
    <trip id="38" depart="744.45" from="E0" to="-E3"/>
    <trip id="39" depart="783.13" from="542277764" to="639201238#2"/>
    <trip id="40" depart="796.06" from="542277764" to="637316564#1"/>
    <trip id="42" depart="800.68" from="E11" to="767870336"/>
    <trip id="43" depart="806.28" from="637316557" to="-E3"/>
    <trip id="44" depart="861.32" from="E4" to="603623650#2"/>
    <trip id="45" depart="864.81" from="542277764" to="603623650#2"/>
    <trip id="46" depart="881.19" from="18905873#0" to="-E4"/>
    <trip id="47" depart="890.68" from="-535758968#2" to="-E1"/>
    <trip id="48" depart="929.85" from="E11" to="-23149187#1"/>
    <trip id="49" depart="957.32" from="18905873#0" to="-E3"/>
    <trip id="50" depart="960.02" from="536432068" to="-E11"/>
    <trip id="51" depart="979.70" from="-535758968#2" to="639201238#2"/>
    <trip id="52" depart="1070.70" from="23149187#0" to="-E4"/>
    <trip id="53" depart="1091.43" from="-10852173#13" to="603623650#2"/>
    <trip id="54" depart="1112.64" from="E3" to="-E0"/>
    <trip id="55" depart="1128.30" from="E11" to="603623650#2"/>
    <trip id="56" depart="1147.36" from="-18906766#4" to="10852173#13"/>
    <trip id="57" depart="1149.51" from="-535758968#2" to="639201238#2"/>
    <trip id="58" depart="1201.91" from="-18906766#4" to="754652102#4"/>
    <trip id="59" depart="1207.62" from="18906825#0" to="637316564#1"/>
    <trip id="60" depart="1208.57" from="637316557" to="-18905873#0"/>
    <trip id="61" depart="1211.91" from="E11" to="-18906825#0"/>
    <trip id="62" depart="1248.89" from="637316557" to="603623650#2"/>
    <trip id="63" depart="1269.87" from="E0" to="603623650#2"/>
    <trip id="64" depart="1293.68" from="E11" to="639201238#2"/>
    <trip id="66" depart="1323.09" from="-18906766#4" to="-E2"/>
    <trip id="67" depart="1358.89" from="-754652102#4" to="-E11"/>
    <trip id="68" depart="1375.32" from="-10852173#13" to="-E4"/>
    <trip id="69" depart="1376.77" from="637316557" to="639201238#2"/>
    <trip id="70" depart="1424.77" from="637316557" to="603623650#2"/>
    <trip id="71" depart="1430.98" from="637316557" to="754652102#4"/>
    <trip id="72" depart="1442.79" from="23149187#0" to="639201238#2"/>
    <trip id="73" depart="1450.09" from="E3" to="535758968#2"/>
    <trip id="74" depart="1466.32" from="E0" to="767870336"/>
    <trip id="75" depart="1486.98" from="18906825#0" to="603623650#2"/>
    <trip id="76" depart="1511.72" from="536432068" to="-18906825#0"/>
    <trip id="77" depart="1516.64" from="-603623650#2" to="535758968#2"/>
    <trip id="78" depart="1550.45" from="-754652102#4" to="-E11"/>
    <trip id="79" depart="1558.32" from="E0" to="-18906825#0"/>
    <trip id="80" depart="1587.47" from="-18906766#4" to="-E2"/>
    <trip id="81" depart="1667.96" from="18906825#0" to="10852173#13"/>
    <trip id="82" depart="1693.55" from="23149187#0" to="-E1"/>
    <trip id="83" depart="1734.06" from="E2" to="603623650#2"/>
    <trip id="84" depart="1742.94" from="18905873#0" to="-E1"/>
    <trip id="85" depart="1758.49" from="23149187#0" to="637316564#1"/>
    <trip id="86" depart="1770.70" from="637316557" to="-E4"/>
    <trip id="87" depart="1777.89" from="23149187#0" to="-E11"/>
    <trip id="88" depart="1800.15" from="E2" to="767870336"/>
    <trip id="89" depart="1801.98" from="536432068" to="-18905873#0"/>
    <trip id="90" depart="1807.11" from="-18906766#4" to="754652102#4"/>
    <trip id="91" depart="1851.02" from="-603623650#2" to="10852173#13"/>
    <trip id="92" depart="1874.21" from="E0" to="-E11"/>
    <trip id="93" depart="1916.32" from="E3" to="18906766#4"/>
    <trip id="95" depart="1941.38" from="E4" to="-23149187#1"/>
    <trip id="97" depart="2013.38" from="E2" to="637316564#1"/>
    <trip id="98" depart="2027.68" from="E3" to="535758968#2"/>
    <trip id="99" depart="2038.55" from="-603623650#2" to="639201238#2"/>
    <trip id="100" depart="2067.62" from="637316557" to="-18906825#0"/>
    <trip id="101" depart="2073.77" from="-603623650#2" to="18906766#4"/>
    <trip id="102" depart="2074.77" from="-754652102#4" to="18906766#4"/>
    <trip id="103" depart="2077.70" from="18906825#0" to="603623650#2"/>
    <trip id="104" depart="2082.40" from="637316557" to="10852173#13"/>
    <trip id="105" depart="2085.09" from="536432068" to="-18905873#0"/>
    <trip id="106" depart="2088.28" from="-603623650#2" to="637316564#1"/>
    <trip id="107" depart="2157.02" from="536432068" to="10852173#13"/>
    <trip id="108" depart="2159.47" from="-754652102#4" to="637316564#1"/>
    <trip id="109" depart="2163.13" from="E3" to="-18905873#0"/>
    <trip id="110" depart="2210.19" from="E11" to="18906766#4"/>
    <trip id="111" depart="2223.70" from="-603623650#2" to="639201238#2"/>
    <trip id="112" depart="2231.62" from="E4" to="754652102#4"/>
    <trip id="113" depart="2237.98" from="E11" to="535758968#2"/>
    <trip id="114" depart="2254.36" from="536432068" to="-E2"/>
    <trip id="115" depart="2283.40" from="E2" to="10852173#13"/>
    <trip id="116" depart="2328.53" from="542277764" to="637316564#1"/>
    <trip id="119" depart="2367.98" from="18906825#0" to="-E0"/>
    <trip id="120" depart="2376.11" from="18905873#0" to="767870336"/>
    <trip id="121" depart="2377.57" from="637316557" to="754652102#4"/>
    <trip id="122" depart="2400.51" from="E11" to="535758968#2"/>
    <trip id="123" depart="2407.66" from="E4" to="-18906825#0"/>
    <trip id="124" depart="2409.00" from="E2" to="18906766#4"/>
    <trip id="125" depart="2419.34" from="-535758968#2" to="-E11"/>
    <trip id="126" depart="2420.15" from="-754652102#4" to="639201238#2"/>
    <trip id="127" depart="2428.81" from="-10852173#13" to="-E0"/>
    <trip id="128" depart="2508.79" from="E3" to="-23149187#1"/>
    <trip id="129" depart="2531.38" from="542277764" to="637316564#1"/>
    <trip id="130" depart="2573.21" from="536432068" to="767870336"/>
    <trip id="131" depart="2576.32" from="637316557" to="-E3"/>
    <trip id="132" depart="2600.04" from="E0" to="-E3"/>
    <trip id="133" depart="2640.45" from="23149187#0" to="-18906825#0"/>
    <trip id="134" depart="2646.72" from="637316557" to="-23149187#1"/>
    <trip id="135" depart="2654.02" from="18905873#0" to="603623650#2"/>
    <trip id="136" depart="2704.53" from="18905873#0" to="10852173#13"/>
    <trip id="137" depart="2711.72" from="E3" to="639201238#2"/>
    <trip id="138" depart="2722.66" from="-10852173#13" to="-E3"/>
    <trip id="139" depart="2745.17" from="637316557" to="18906766#4"/>
    <trip id="140" depart="2758.11" from="E2" to="603623650#2"/>
    <trip id="141" depart="2773.57" from="-10852173#13" to="-E4"/>
    <trip id="142" depart="2774.98" from="542277764" to="637316564#1"/>
    <trip id="143" depart="2775.70" from="-754652102#4" to="767870336"/>
    <trip id="144" depart="2802.09" from="E2" to="637316564#1"/>
    <trip id="145" depart="2824.94" from="542277764" to="-E2"/>
    <trip id="146" depart="2832.83" from="536432068" to="603623650#2"/>
    <trip id="147" depart="2909.74" from="-754652102#4" to="767870336"/>
    <trip id="148" depart="2921.53" from="637316557" to="-23149187#1"/>
    <trip id="149" depart="2929.19" from="E3" to="-18905873#0"/>
    <trip id="150" depart="2978.51" from="637316557" to="603623650#2"/>
    <trip id="151" depart="3007.94" from="536432068" to="-18905873#0"/>
    <trip id="152" depart="3021.23" from="536432068" to="603623650#2"/>
    <trip id="153" depart="3057.49" from="637316557" to="-E11"/>
    <trip id="154" depart="3066.17" from="-603623650#2" to="18906766#4"/>
    <trip id="155" depart="3072.68" from="542277764" to="637316564#1"/>
    <trip id="156" depart="3118.51" from="536432068" to="637316564#1"/>
    <trip id="157" depart="3123.36" from="18906825#0" to="-E0"/>
    <trip id="159" depart="3135.94" from="23149187#0" to="639201238#2"/>
    <trip id="160" depart="3143.77" from="E2" to="10852173#13"/>
    <trip id="161" depart="3150.66" from="18906825#0" to="-E3"/>
    <trip id="162" depart="3161.45" from="E11" to="-18906825#0"/>
    <trip id="163" depart="3186.49" from="E3" to="535758968#2"/>
    <trip id="164" depart="3214.74" from="637316557" to="18906766#4"/>
    <trip id="165" depart="3216.62" from="-10852173#13" to="-E2"/>
    <trip id="166" depart="3275.06" from="536432068" to="-E0"/>
    <trip id="167" depart="3280.64" from="-754652102#4" to="-E4"/>
    <trip id="168" depart="3288.94" from="E4" to="18906766#4"/>
    <trip id="169" depart="3305.30" from="-10852173#13" to="-E11"/>
    <trip id="170" depart="3320.96" from="-603623650#2" to="18906766#4"/>
    <trip id="171" depart="3322.94" from="-754652102#4" to="767870336"/>
    <trip id="172" depart="3356.47" from="23149187#0" to="637316564#1"/>
    <trip id="173" depart="3361.45" from="18906825#0" to="639201238#2"/>
    <trip id="174" depart="3361.85" from="18906825#0" to="-E11"/>
    <trip id="175" depart="3370.60" from="637316557" to="18906766#4"/>
    <trip id="176" depart="3374.34" from="E11" to="603623650#2"/>
    <trip id="177" depart="3392.89" from="637316557" to="603623650#2"/>
    <trip id="178" depart="3406.51" from="E2" to="767870336"/>
    <trip id="179" depart="3434.00" from="-10852173#13" to="-E4"/>
    <trip id="181" depart="3461.02" from="-603623650#2" to="-18905873#0"/>
    <trip id="182" depart="3475.21" from="637316557" to="-E3"/>
    <trip id="183" depart="3517.09" from="-603623650#2" to="10852173#13"/>
    <trip id="184" depart="3527.60" from="637316557" to="-18906825#0"/>
    <trip id="185" depart="3545.23" from="-603623650#2" to="18906766#4"/>
    <trip id="186" depart="3589.49" from="18906825#0" to="639201238#2"/>
    <trip id="187" depart="3595.77" from="18906825#0" to="603623650#2"/>
    <trip id="188" depart="3613.09" from="23149187#0" to="-E2"/>
    <trip id="189" depart="3644.00" from="-535758968#2" to="-E0"/>
    <trip id="190" depart="3645.45" from="23149187#0" to="639201238#2"/>
    <trip id="191" depart="3661.73" from="542277764" to="535758968#2"/>
    <trip id="192" depart="3675.73" from="-754652102#4" to="18906766#4"/>
    <trip id="193" depart="3738.27" from="-603623650#2" to="639201238#2"/>
    <trip id="194" depart="3747.00" from="-603623650#2" to="637316564#1"/>
    <trip id="196" depart="3819.45" from="18906825#0" to="603623650#2"/>
    <trip id="197" depart="3850.55" from="637316557" to="-E2"/>
    <trip id="198" depart="3879.45" from="-535758968#2" to="639201238#2"/>
    <trip id="199" depart="3919.27" from="536432068" to="637316564#1"/>
    <trip id="200" depart="3930.55" from="536432068" to="-E0"/>
    <trip id="201" depart="3930.91" from="-754652102#4" to="18906766#4"/>
    <trip id="202" depart="4027.73" from="542277764" to="637316564#1"/>
    <trip id="203" depart="4082.00" from="E11" to="637316564#1"/>
    <trip id="204" depart="4087.09" from="E3" to="637316564#1"/>
    <trip id="205" depart="4138.73" from="E0" to="637316564#1"/>
    <trip id="206" depart="4140.45" from="-18906766#4" to="-E11"/>
    <trip id="207" depart="4182.00" from="23149187#0" to="10852173#13"/>
    <trip id="208" depart="4247.73" from="E0" to="-E1"/>
    <trip id="209" depart="4259.55" from="E11" to="-E0"/>
    <trip id="210" depart="4299.91" from="-603623650#2" to="637316564#1"/>
    <trip id="211" depart="4374.45" from="-18906766#4" to="10852173#13"/>
    <trip id="213" depart="4463.82" from="18905873#0" to="-E2"/>
    <trip id="214" depart="4471.18" from="-10852173#13" to="-E4"/>
    <trip id="215" depart="4544.45" from="18905873#0" to="-E1"/>
    <trip id="216" depart="4594.45" from="637316557" to="-E0"/>
    <trip id="217" depart="4651.82" from="18906825#0" to="-E0"/>
    <trip id="218" depart="4703.64" from="-603623650#2" to="-E4"/>
    <trip id="219" depart="4742.09" from="E11" to="639201238#2"/>
    <trip id="220" depart="4848.09" from="18905873#0" to="639201238#2"/>
    <trip id="221" depart="4866.91" from="E4" to="-E0"/>
    <trip id="222" depart="5129.36" from="E2" to="603623650#2"/>
    <trip id="223" depart="5148.73" from="E4" to="-18905873#0"/>
    <trip id="224" depart="5164.00" from="18906825#0" to="10852173#13"/>
    <trip id="225" depart="5196.27" from="542277764" to="535758968#2"/>
    <trip id="227" depart="5213.27" from="542277764" to="-E0"/>
    <trip id="228" depart="5226.55" from="-754652102#4" to="767870336"/>
    <trip id="229" depart="5229.27" from="E4" to="637316564#1"/>
    <trip id="230" depart="5256.64" from="637316557" to="-E1"/>
    <trip id="231" depart="5303.91" from="-603623650#2" to="10852173#13"/>
    <trip id="232" depart="5391.45" from="18906825#0" to="10852173#13"/>
    <trip id="233" depart="5449.55" from="-18906766#4" to="603623650#2"/>
    <trip id="234" depart="5508.00" from="-18906766#4" to="10852173#13"/>
    <trip id="235" depart="5688.36" from="536432068" to="-E2"/>
    <trip id="236" depart="5691.91" from="E0" to="767870336"/>
    <trip id="237" depart="5737.91" from="-18906766#4" to="603623650#2"/>
    <trip id="238" depart="5777.36" from="637316557" to="-18905873#0"/>
    <trip id="239" depart="5787.09" from="18905873#0" to="-23149187#1"/>
    <trip id="240" depart="5857.82" from="E0" to="-E2"/>
    <trip id="242" depart="5997.18" from="-754652102#4" to="-E2"/>
    <trip id="243" depart="6064.73" from="18906825#0" to="-E1"/>
    <trip id="244" depart="6096.09" from="E2" to="767870336"/>
    <trip id="245" depart="6153.09" from="23149187#0" to="-18905873#0"/>
    <trip id="246" depart="6183.09" from="637316557" to="-23149187#1"/>
    <trip id="247" depart="6264.00" from="E0" to="-E4"/>
    <trip id="248" depart="6326.55" from="637316557" to="639201238#2"/>
    <trip id="249" depart="6349.91" from="-603623650#2" to="-18906825#0"/>
    <trip id="250" depart="6370.91" from="E4" to="-18905873#0"/>
    <trip id="251" depart="6374.27" from="-18906766#4" to="535758968#2"/>
    <trip id="252" depart="6384.55" from="-10852173#13" to="-E1"/>
    <trip id="253" depart="6390.09" from="637316557" to="767870336"/>
    <trip id="254" depart="6403.91" from="536432068" to="-E0"/>
    <trip id="255" depart="6408.09" from="E2" to="-23149187#1"/>
    <trip id="256" depart="6461.64" from="E3" to="767870336"/>
    <trip id="257" depart="6463.09" from="-754652102#4" to="-18906825#0"/>
    <trip id="259" depart="6611.55" from="-603623650#2" to="639201238#2"/>
    <trip id="260" depart="6731.00" from="E3" to="637316564#1"/>
    <trip id="261" depart="6757.45" from="E3" to="603623650#2"/>
    <trip id="262" depart="6778.91" from="536432068" to="637316564#1"/>
    <trip id="263" depart="6798.91" from="-603623650#2" to="639201238#2"/>
    <trip id="264" depart="6799.45" from="18905873#0" to="10852173#13"/>
    <trip id="265" depart="6802.91" from="536432068" to="-23149187#1"/>
    <trip id="266" depart="6815.45" from="-603623650#2" to="-E4"/>
    <trip id="267" depart="6878.18" from="637316557" to="10852173#13"/>
    <trip id="268" depart="6972.91" from="-754652102#4" to="535758968#2"/>
    <trip id="269" depart="6978.82" from="-18906766#4" to="10852173#13"/>
    <trip id="270" depart="6998.45" from="E4" to="-23149187#1"/>
    <trip id="271" depart="7021.45" from="E0" to="-18905873#0"/>
    <trip id="272" depart="7035.91" from="637316557" to="-18905873#0"/>
    <trip id="273" depart="7075.82" from="18905873#0" to="639201238#2"/>
    <trip id="274" depart="7089.27" from="18905873#0" to="-E1"/>
    <trip id="275" depart="7158.82" from="-754652102#4" to="639201238#2"/>
    <trip id="276" depart="7219.18" from="E2" to="754652102#4"/>
    <trip id="277" depart="7253.55" from="E3" to="637316564#1"/>
    <trip id="278" depart="7307.27" from="18906825#0" to="637316564#1"/>
    <trip id="279" depart="7317.09" from="23149187#0" to="-E1"/>
    <trip id="280" depart="7397.09" from="542277764" to="535758968#2"/>
    <trip id="281" depart="7402.82" from="E4" to="767870336"/>
    <trip id="282" depart="7690.82" from="E0" to="603623650#2"/>
    <trip id="283" depart="7763.09" from="-10852173#13" to="639201238#2"/>
    <trip id="284" depart="7830.09" from="637316557" to="-E0"/>
    <trip id="285" depart="7911.55" from="E2" to="767870336"/>
    <trip id="286" depart="7920.55" from="-10852173#13" to="-18905873#0"/>
    <trip id="287" depart="7966.91" from="-18906766#4" to="754652102#4"/>
    <trip id="288" depart="7981.36" from="18905873#0" to="-E2"/>
    <trip id="290" depart="8079.00" from="-18906766#4" to="535758968#2"/>
    <trip id="291" depart="8216.00" from="542277764" to="-23149187#1"/>
    <trip id="292" depart="8237.55" from="E11" to="-E0"/>
    <trip id="293" depart="8274.73" from="-535758968#2" to="-E2"/>
    <trip id="294" depart="8392.73" from="-535758968#2" to="-E3"/>
    <trip id="295" depart="8398.64" from="-603623650#2" to="637316564#1"/>
    <trip id="296" depart="8493.09" from="-603623650#2" to="-18905873#0"/>
    <trip id="297" depart="8607.36" from="-18906766#4" to="10852173#13"/>
    <trip id="299" depart="8837.36" from="E0" to="535758968#2"/>
    <trip id="300" depart="8932.45" from="-603623650#2" to="535758968#2"/>
    <trip id="302" depart="9126.00" from="637316557" to="767870336"/>
    <trip id="303" depart="9180.00" from="E0" to="-E2"/>
    <trip id="304" depart="9360.55" from="E11" to="754652102#4"/>
    <trip id="305" depart="9417.27" from="E3" to="637316564#1"/>
    <trip id="306" depart="9473.36" from="-603623650#2" to="637316564#1"/>
    <trip id="307" depart="9579.82" from="542277764" to="-18906825#0"/>
    <trip id="308" depart="9704.00" from="E2" to="10852173#13"/>
    <trip id="309" depart="9788.64" from="E4" to="767870336"/>
    <trip id="310" depart="9851.00" from="23149187#0" to="-18906825#0"/>
    <trip id="311" depart="9862.64" from="E2" to="-18906825#0"/>
    <trip id="312" depart="9869.64" from="18906825#0" to="-E0"/>
    <trip id="313" depart="9933.45" from="18905873#0" to="603623650#2"/>
    <trip id="314" depart="9947.82" from="18906825#0" to="-E3"/>
    <trip id="315" depart="9977.45" from="637316557" to="754652102#4"/>
    <trip id="316" depart="10213.82" from="-535758968#2" to="603623650#2"/>
    <trip id="317" depart="10256.09" from="E0" to="639201238#2"/>
    <trip id="318" depart="10453.18" from="637316557" to="18906766#4"/>
    <trip id="319" depart="10652.73" from="536432068" to="-18905873#0"/>
    <trip id="320" depart="10850.00" from="18905873#0" to="603623650#2"/>
    <trip id="321" depart="10956.73" from="18906825#0" to="-23149187#1"/>
    <trip id="322" depart="11240.64" from="-18906766#4" to="637316564#1"/>
    <trip id="323" depart="11261.64" from="637316557" to="603623650#2"/>
    <trip id="324" depart="11533.09" from="E11" to="767870336"/>
    <trip id="325" depart="11603.36" from="-10852173#13" to="-E0"/>
    <trip id="326" depart="11780.64" from="-18906766#4" to="754652102#4"/>
    <trip id="327" depart="11922.45" from="637316557" to="-E4"/>
    <trip id="328" depart="12093.64" from="-18906766#4" to="637316564#1"/>
    <trip id="329" depart="12133.27" from="-603623650#2" to="639201238#2"/>
    <trip id="330" depart="12311.91" from="E11" to="639201238#2"/>
    <trip id="331" depart="12383.27" from="536432068" to="603623650#2"/>
    <trip id="332" depart="12419.27" from="637316557" to="-18905873#0"/>
    <trip id="334" depart="12835.27" from="-535758968#2" to="-E2"/>
    <trip id="335" depart="12951.27" from="18905873#0" to="603623650#2"/>
    <trip id="336" depart="12983.91" from="-10852173#13" to="-E1"/>
    <trip id="337" depart="13101.82" from="-603623650#2" to="639201238#2"/>
    <trip id="338" depart="13139.18" from="E0" to="-18905873#0"/>
    <trip id="339" depart="13335.09" from="637316557" to="-E2"/>
    <trip id="340" depart="13354.00" from="E3" to="-23149187#1"/>
    <trip id="341" depart="13629.36" from="-603623650#2" to="-E1"/>
    <trip id="342" depart="13862.55" from="E3" to="-E0"/>
    <trip id="343" depart="13885.27" from="-603623650#2" to="-E0"/>
    <trip id="344" depart="13923.36" from="-18906766#4" to="603623650#2"/>
    <trip id="345" depart="13945.91" from="E0" to="10852173#13"/>
    <trip id="346" depart="13983.91" from="-10852173#13" to="-E0"/>
    <trip id="347" depart="14008.91" from="E0" to="-18906825#0"/>
    <trip id="348" depart="14026.36" from="637316557" to="-E0"/>
    <trip id="349" depart="14053.73" from="23149187#0" to="637316564#1"/>
    <trip id="350" depart="14250.00" from="18906825#0" to="639201238#2"/>
    <trip id="351" depart="14287.00" from="-754652102#4" to="639201238#2"/>
    <trip id="352" depart="14295.36" from="-754652102#4" to="-18906825#0"/>
    <trip id="354" depart="14469.44" from="637316557" to="-18905873#0"/>
    <trip id="355" depart="14706.78" from="23149187#0" to="10852173#13"/>
    <trip id="356" depart="14708.67" from="E4" to="767870336"/>
    <trip id="357" depart="14740.56" from="E2" to="18906766#4"/>
    <trip id="358" depart="14799.89" from="-754652102#4" to="637316564#1"/>
    <trip id="359" depart="14833.22" from="E0" to="637316564#1"/>
    <trip id="360" depart="14884.78" from="-535758968#2" to="-E11"/>
    <trip id="361" depart="14898.33" from="E0" to="-E4"/>
    <trip id="362" depart="14959.56" from="637316557" to="-E2"/>
    <trip id="363" depart="14967.67" from="E11" to="-23149187#1"/>
    <trip id="364" depart="15073.67" from="18906825#0" to="754652102#4"/>
    <trip id="365" depart="15088.44" from="E4" to="637316564#1"/>
    <trip id="366" depart="15092.89" from="542277764" to="637316564#1"/>
    <trip id="367" depart="15309.33" from="18906825#0" to="639201238#2"/>
    <trip id="369" depart="15372.44" from="536432068" to="-23149187#1"/>
    <trip id="370" depart="15376.44" from="637316557" to="603623650#2"/>
    <trip id="371" depart="15467.11" from="E11" to="-E0"/>
    <trip id="372" depart="15504.67" from="18906825#0" to="-E1"/>
    <trip id="373" depart="15513.11" from="18905873#0" to="-E2"/>
    <trip id="374" depart="15535.67" from="637316557" to="639201238#2"/>
    <trip id="375" depart="15553.89" from="542277764" to="-E2"/>
    <trip id="376" depart="15587.11" from="637316557" to="603623650#2"/>
    <trip id="377" depart="15613.44" from="-10852173#13" to="535758968#2"/>
    <trip id="378" depart="15638.78" from="-535758968#2" to="-E3"/>
    <trip id="379" depart="15663.22" from="18905873#0" to="639201238#2"/>
    <trip id="380" depart="15715.22" from="18905873#0" to="-E0"/>
    <trip id="381" depart="15720.00" from="E2" to="-23149187#1"/>
    <trip id="382" depart="15756.78" from="E11" to="637316564#1"/>
    <trip id="383" depart="15768.67" from="637316557" to="754652102#4"/>
    <trip id="384" depart="15779.78" from="637316557" to="-23149187#1"/>
    <trip id="385" depart="15806.89" from="E3" to="754652102#4"/>
    <trip id="386" depart="15851.67" from="637316557" to="603623650#2"/>
    <trip id="387" depart="15883.89" from="-10852173#13" to="-E1"/>
    <trip id="388" depart="15961.67" from="E4" to="-E0"/>
    <trip id="389" depart="15978.00" from="536432068" to="-18905873#0"/>
    <trip id="390" depart="15991.33" from="-535758968#2" to="-E1"/>
    <trip id="391" depart="16000.22" from="E0" to="-E4"/>
    <trip id="392" depart="16075.89" from="-535758968#2" to="603623650#2"/>
    <trip id="393" depart="16078.33" from="E11" to="535758968#2"/>
    <trip id="394" depart="16112.44" from="637316557" to="18906766#4"/>
    <trip id="395" depart="16133.78" from="E4" to="-E0"/>
    <trip id="396" depart="16371.22" from="E3" to="637316564#1"/>
    <trip id="397" depart="16646.67" from="-18906766#4" to="10852173#13"/>
    <trip id="398" depart="16697.11" from="536432068" to="535758968#2"/>
    <trip id="399" depart="16708.89" from="E0" to="639201238#2"/>
    <trip id="400" depart="16728.56" from="-18906766#4" to="10852173#13"/>
    <trip id="401" depart="16758.44" from="-603623650#2" to="767870336"/>
    <trip id="402" depart="16848.11" from="E4" to="-18906825#0"/>
    <trip id="403" depart="16853.00" from="-603623650#2" to="-E2"/>
    <trip id="404" depart="16946.22" from="-603623650#2" to="-E4"/>
    <trip id="405" depart="16955.56" from="-535758968#2" to="-E3"/>
    <trip id="406" depart="16966.44" from="E3" to="637316564#1"/>
    <trip id="407" depart="16980.89" from="18906825#0" to="639201238#2"/>
    <trip id="408" depart="17013.00" from="E4" to="637316564#1"/>
    <trip id="409" depart="17025.33" from="637316557" to="754652102#4"/>
    <trip id="410" depart="17093.00" from="E3" to="754652102#4"/>
    <trip id="411" depart="17183.67" from="E4" to="637316564#1"/>
    <trip id="412" depart="17215.11" from="E4" to="603623650#2"/>
    <trip id="413" depart="17219.11" from="542277764" to="-E4"/>
    <trip id="414" depart="17245.22" from="-603623650#2" to="-E11"/>
    <trip id="415" depart="17275.89" from="-603623650#2" to="-18905873#0"/>
    <trip id="416" depart="17277.67" from="E4" to="-18905873#0"/>
    <trip id="417" depart="17278.56" from="637316557" to="-E2"/>
    <trip id="418" depart="17342.11" from="-603623650#2" to="10852173#13"/>
    <trip id="419" depart="17437.44" from="-754652102#4" to="639201238#2"/>
    <trip id="420" depart="17584.89" from="-603623650#2" to="-E2"/>
    <trip id="421" depart="17585.11" from="-603623650#2" to="639201238#2"/>
    <trip id="422" depart="17711.22" from="-18906766#4" to="-E11"/>
    <trip id="423" depart="17727.67" from="E0" to="767870336"/>
    <trip id="424" depart="17763.00" from="536432068" to="-18905873#0"/>
    <trip id="425" depart="17773.56" from="E3" to="-E0"/>
    <trip id="426" depart="17779.89" from="-10852173#13" to="-E11"/>
    <trip id="427" depart="17804.11" from="E2" to="637316564#1"/>
    <trip id="428" depart="17810.78" from="-18906766#4" to="754652102#4"/>
    <trip id="429" depart="17827.67" from="18906825#0" to="10852173#13"/>
    <trip id="430" depart="17835.00" from="E0" to="603623650#2"/>
    <trip id="431" depart="17843.89" from="536432068" to="-E4"/>
    <trip id="432" depart="17874.56" from="18906825#0" to="-E11"/>
    <trip id="433" depart="17927.89" from="E11" to="-23149187#1"/>
    <trip id="434" depart="18055.30" from="E0" to="637316564#1"/>
    <trip id="435" depart="18076.85" from="-603623650#2" to="639201238#2"/>