<additional xmlns:xsi="http://www.w3.org/2001/XMLSchema-instance" xsi:noNamespaceSchemaLocation="http://sumo.dlr.de/xsd/additional_file.xsd">
    <laneAreaDetector file="e2output.xml" freq="60" friendlyPos="x" id="e2det_-10852173#10_0" lane="-10852173#10_0" length="35" pos="49.71999999999999"/>
    <laneAreaDetector file="e2output.xml" freq="60" friendlyPos="x" id="e2det_10852173#1_0" lane="10852173#1_0" length="35" pos="130.75"/>
    <laneAreaDetector file="e2output.xml" freq="60" friendlyPos="x" id="e2det_639201265_0" lane="639201265_0" length="32.71" pos="1.4155343563970746e-15"/>
    <laneAreaDetector file="e2output.xml" freq="60" friendlyPos="x" id="e2det_639201265_1" lane="639201265_1" length="32.71" pos="1.4155343563970746e-15"/>
    <laneAreaDetector file="e2output.xml" freq="60" friendlyPos="x" id="e2det_639201265_2" lane="639201265_2" length="32.71" pos="1.4155343563970746e-15"/>
    <laneAreaDetector file="e2output.xml" freq="60" friendlyPos="x" id="e2det_639201268#0_0" lane="639201268#0_0" length="25.869999999999997" pos="1.4155343563970746e-15"/>
    <laneAreaDetector file="e2output.xml" freq="60" friendlyPos="x" id="e2det_639201268#0_1" lane="639201268#0_1" length="25.869999999999997" pos="1.4155343563970746e-15"/>
    <laneAreaDetector file="e2output.xml" freq="60" friendlyPos="x" id="e2det_639201268#0_2" lane="639201268#0_2" length="25.869999999999997" pos="1.4155343563970746e-15"/>
    <laneAreaDetector file="e2output.xml" freq="60" friendlyPos="x" id="e2det_639201268#0_3" lane="639201268#0_3" length="25.869999999999997" pos="1.4155343563970746e-15"/>
    <laneAreaDetector file="e2output.xml" freq="60" friendlyPos="x" id="e2det_-10852173#11_0" lane="-10852173#11_0" length="35" pos="141.61"/>
    <laneAreaDetector file="e2output.xml" freq="60" friendlyPos="x" id="e2det_-754618796#0_0" lane="-754618796#0_0" length="35" pos="62.449999999999996"/>
    <laneAreaDetector file="e2output.xml" freq="60" friendlyPos="x" id="e2det_10852173#8_0" lane="10852173#8_0" length="35" pos="49.669999999999995"/>
    <laneAreaDetector file="e2output.xml" freq="60" friendlyPos="x" id="e2det_-10852179#7_0" lane="-10852179#7_0" length="35" pos="117.56"/>
    <laneAreaDetector file="e2output.xml" freq="60" friendlyPos="x" id="e2det_639201262_0" lane="639201262_0" length="29.729999999999997" pos="1.4155343563970746e-15"/>
    <laneAreaDetector file="e2output.xml" freq="60" friendlyPos="x" id="e2det_639201262_1" lane="639201262_1" length="29.729999999999997" pos="1.4155343563970746e-15"/>
    <laneAreaDetector file="e2output.xml" freq="60" friendlyPos="x" id="e2det_639201262_2" lane="639201262_2" length="29.729999999999997" pos="1.4155343563970746e-15"/>
    <laneAreaDetector file="e2output.xml" freq="60" friendlyPos="x" id="e2det_639201263_0" lane="639201263_0" length="35" pos="1.1299999999999968"/>
    <laneAreaDetector file="e2output.xml" freq="60" friendlyPos="x" id="e2det_639201263_1" lane="639201263_1" length="35" pos="1.1299999999999968"/>
    <laneAreaDetector file="e2output.xml" freq="60" friendlyPos="x" id="e2det_639201263_2" lane="639201263_2" length="35" pos="1.1299999999999968"/>
    <laneAreaDetector file="e2output.xml" freq="60" friendlyPos="x" id="e2det_E11_0" lane="E11_0" length="35" pos="324.40999999999997"/>
    <laneAreaDetector file="e2output.xml" freq="60" friendlyPos="x" id="e2det_-18906766#2_0" lane="-18906766#2_0" length="14.88" pos="0"/>
    <laneAreaDetector file="e2output.xml" freq="60" friendlyPos="x" id="e2det_-768096367#0_0" lane="-768096367#0_0" length="14.8" pos="0"/>
    <laneAreaDetector file="e2output.xml" freq="60" friendlyPos="x" id="e2det_18906766#1_0" lane="18906766#1_0" length="29.389999999999997" pos="1.4155343563970746e-15"/>
    <laneAreaDetector file="e2output.xml" freq="60" friendlyPos="x" id="e2det_-18906816#3_0" lane="-18906816#3_0" length="35" pos="70.79"/>
    <laneAreaDetector file="e2output.xml" freq="60" friendlyPos="x" id="e2det_18906805#3_0" lane="18906805#3_0" length="11.33" pos="0"/>
    <laneAreaDetector file="e2output.xml" freq="60" friendlyPos="x" id="e2det_18906816#1_0" lane="18906816#1_0" length="35" pos="268.14"/>
    <laneAreaDetector file="e2output.xml" freq="60" friendlyPos="x" id="e2det_-22330727_0" lane="-22330727_0" length="35" pos="259.07"/>
    <laneAreaDetector file="e2output.xml" freq="60" friendlyPos="x" id="e2det_18906792#1_0" lane="18906792#1_0" length="35" pos="159.78"/>
    <laneAreaDetector file="e2output.xml" freq="60" friendlyPos="x" id="e2det_726161513#0_0" lane="726161513#0_0" length="19.45" pos="1.4155343563970746e-15"/>
    <laneAreaDetector file="e2output.xml" freq="60" friendlyPos="x" id="e2det_-637315177#2_0" lane="-637315177#2_0" length="35" pos="8.4"/>
    <laneAreaDetector file="e2output.xml" freq="60" friendlyPos="x" id="e2det_-637315177#2_1" lane="-637315177#2_1" length="35" pos="8.4"/>
    <laneAreaDetector file="e2output.xml" freq="60" friendlyPos="x" id="e2det_637315172#0_0" lane="637315172#0_0" length="26.639999999999997" pos="1.4155343563970746e-15"/>
    <laneAreaDetector file="e2output.xml" freq="60" friendlyPos="x" id="e2det_637315172#0_1" lane="637315172#0_1" length="26.639999999999997" pos="1.4155343563970746e-15"/>
    <laneAreaDetector file="e2output.xml" freq="60" friendlyPos="x" id="e2det_637315172#0_2" lane="637315172#0_2" length="26.639999999999997" pos="1.4155343563970746e-15"/>
    <laneAreaDetector file="e2output.xml" freq="60" friendlyPos="x" id="e2det_637315172#0_3" lane="637315172#0_3" length="26.639999999999997" pos="1.4155343563970746e-15"/>
    <laneAreaDetector file="e2output.xml" freq="60" friendlyPos="x" id="e2det_637315175_0" lane="637315175_0" length="30.979999999999997" pos="1.4155343563970746e-15"/>
    <laneAreaDetector file="e2output.xml" freq="60" friendlyPos="x" id="e2det_637315175_1" lane="637315175_1" length="30.979999999999997" pos="1.4155343563970746e-15"/>
    <laneAreaDetector file="e2output.xml" freq="60" friendlyPos="x" id="e2det_637315175_2" lane="637315175_2" length="30.979999999999997" pos="1.4155343563970746e-15"/>
    <laneAreaDetector file="e2output.xml" freq="60" friendlyPos="x" id="e2det_637315175_3" lane="637315175_3" length="30.979999999999997" pos="1.4155343563970746e-15"/>
    <laneAreaDetector file="e2output.xml" freq="60" friendlyPos="x" id="e2det_-639201242_0" lane="-639201242_0" length="34.57" pos="1.4155343563970746e-15"/>
    <laneAreaDetector file="e2output.xml" freq="60" friendlyPos="x" id="e2det_-639201242_1" lane="-639201242_1" length="34.57" pos="1.4155343563970746e-15"/>
    <laneAreaDetector file="e2output.xml" freq="60" friendlyPos="x" id="e2det_-639201242_2" lane="-639201242_2" length="34.57" pos="1.4155343563970746e-15"/>
    <laneAreaDetector file="e2output.xml" freq="60" friendlyPos="x" id="e2det_1119548224_0" lane="1119548224_0" length="13.22" pos="0"/>
    <laneAreaDetector file="e2output.xml" freq="60" friendlyPos="x" id="e2det_1119548224_1" lane="1119548224_1" length="13.22" pos="0"/>
    <laneAreaDetector file="e2output.xml" freq="60" friendlyPos="x" id="e2det_639201244_0" lane="639201244_0" length="18.93" pos="1.4155343563970746e-15"/>
    <laneAreaDetector file="e2output.xml" freq="60" friendlyPos="x" id="e2det_639201244_1" lane="639201244_1" length="18.93" pos="1.4155343563970746e-15"/>
    <laneAreaDetector file="e2output.xml" freq="60" friendlyPos="x" id="e2det_639201244_2" lane="639201244_2" length="18.93" pos="1.4155343563970746e-15"/>
    <laneAreaDetector file="e2output.xml" freq="60" friendlyPos="x" id="e2det_639201247_0" lane="639201247_0" length="2.38" pos="8.326672684688674e-17"/>
    <laneAreaDetector file="e2output.xml" freq="60" friendlyPos="x" id="e2det_639201247_1" lane="639201247_1" length="2.38" pos="8.326672684688674e-17"/>
    <laneAreaDetector file="e2output.xml" freq="60" friendlyPos="x" id="e2det_639201247_2" lane="639201247_2" length="2.38" pos="8.326672684688674e-17"/>
    <laneAreaDetector file="e2output.xml" freq="60" friendlyPos="x" id="e2det_-639201251#1_0" lane="-639201251#1_0" length="35" pos="28.129999999999995"/>
    <laneAreaDetector file="e2output.xml" freq="60" friendlyPos="x" id="e2det_639201254_0" lane="639201254_0" length="30.65" pos="1.4155343563970746e-15"/>
    <laneAreaDetector file="e2output.xml" freq="60" friendlyPos="x" id="e2det_639201254_1" lane="639201254_1" length="30.65" pos="1.4155343563970746e-15"/>
    <laneAreaDetector file="e2output.xml" freq="60" friendlyPos="x" id="e2det_639201254_2" lane="639201254_2" length="30.65" pos="1.4155343563970746e-15"/>
    <laneAreaDetector file="e2output.xml" freq="60" friendlyPos="x" id="e2det_639201255_0" lane="639201255_0" length="28.29" pos="1.4155343563970746e-15"/>
    <laneAreaDetector file="e2output.xml" freq="60" friendlyPos="x" id="e2det_639201255_1" lane="639201255_1" length="28.29" pos="1.4155343563970746e-15"/>
    <laneAreaDetector file="e2output.xml" freq="60" friendlyPos="x" id="e2det_639201255_2" lane="639201255_2" length="28.29" pos="1.4155343563970746e-15"/>
    <laneAreaDetector file="e2output.xml" freq="60" friendlyPos="x" id="e2det_E3_0" lane="E3_0" length="35" pos="308.62"/>
    <laneAreaDetector file="e2output.xml" freq="60" friendlyPos="x" id="e2det_-754652102#3_0" lane="-754652102#3_0" length="35" pos="57.63"/>
    <laneAreaDetector file="e2output.xml" freq="60" friendlyPos="x" id="e2det_18905873#2_0" lane="18905873#2_0" length="35" pos="93.28999999999999"/>
    <laneAreaDetector file="e2output.xml" freq="60" friendlyPos="x" id="e2det_639201279_0" lane="639201279_0" length="35" pos="4.549999999999999"/>
    <laneAreaDetector file="e2output.xml" freq="60" friendlyPos="x" id="e2det_639201279_1" lane="639201279_1" length="35" pos="4.549999999999999"/>
    <laneAreaDetector file="e2output.xml" freq="60" friendlyPos="x" id="e2det_639201279_2" lane="639201279_2" length="35" pos="4.549999999999999"/>
    <laneAreaDetector file="e2output.xml" freq="60" friendlyPos="x" id="e2det_639201279_3" lane="639201279_3" length="35" pos="4.549999999999999"/>
    <laneAreaDetector file="e2output.xml" freq="60" friendlyPos="x" id="e2det_639201281_0" lane="639201281_0" length="26.709999999999997" pos="1.4155343563970746e-15"/>
    <laneAreaDetector file="e2output.xml" freq="60" friendlyPos="x" id="e2det_639201281_1" lane="639201281_1" length="26.709999999999997" pos="1.4155343563970746e-15"/>
    <laneAreaDetector file="e2output.xml" freq="60" friendlyPos="x" id="e2det_639201281_2" lane="639201281_2" length="26.709999999999997" pos="1.4155343563970746e-15"/>
    <laneAreaDetector file="e2output.xml" freq="60" friendlyPos="x" id="e2det_639201281_3" lane="639201281_3" length="26.709999999999997" pos="1.4155343563970746e-15"/>
    <laneAreaDetector file="e2output.xml" freq="60" friendlyPos="x" id="e2det_639201258_0" lane="639201258_0" length="29.65" pos="1.4155343563970746e-15"/>
    <laneAreaDetector file="e2output.xml" freq="60" friendlyPos="x" id="e2det_639201258_1" lane="639201258_1" length="29.65" pos="1.4155343563970746e-15"/>
    <laneAreaDetector file="e2output.xml" freq="60" friendlyPos="x" id="e2det_639201258_2" lane="639201258_2" length="29.65" pos="1.4155343563970746e-15"/>
    <laneAreaDetector file="e2output.xml" freq="60" friendlyPos="x" id="e2det_639201259#0_0" lane="639201259#0_0" length="33.41" pos="1.4155343563970746e-15"/>
    <laneAreaDetector file="e2output.xml" freq="60" friendlyPos="x" id="e2det_639201259#0_1" lane="639201259#0_1" length="33.41" pos="1.4155343563970746e-15"/>
    <laneAreaDetector file="e2output.xml" freq="60" friendlyPos="x" id="e2det_639201259#0_2" lane="639201259#0_2" length="33.41" pos="1.4155343563970746e-15"/>
    <laneAreaDetector file="e2output.xml" freq="60" friendlyPos="x" id="e2det_754576367#0_0" lane="754576367#0_0" length="35" pos="120.72"/>
    <laneAreaDetector file="e2output.xml" freq="60" friendlyPos="x" id="e2det_E4_0" lane="E4_0" length="35" pos="325.34"/>
    <laneAreaDetector file="e2output.xml" freq="60" friendlyPos="x" id="e2det_639201271_0" lane="639201271_0" length="24.24" pos="1.4155343563970746e-15"/>
    <laneAreaDetector file="e2output.xml" freq="60" friendlyPos="x" id="e2det_639201271_1" lane="639201271_1" length="24.24" pos="1.4155343563970746e-15"/>
    <laneAreaDetector file="e2output.xml" freq="60" friendlyPos="x" id="e2det_639201271_2" lane="639201271_2" length="24.24" pos="1.4155343563970746e-15"/>
    <laneAreaDetector file="e2output.xml" freq="60" friendlyPos="x" id="e2det_639201271_3" lane="639201271_3" length="24.24" pos="1.4155343563970746e-15"/>
    <laneAreaDetector file="e2output.xml" freq="60" friendlyPos="x" id="e2det_639201273_0" lane="639201273_0" length="35" pos="14.87"/>
    <laneAreaDetector file="e2output.xml" freq="60" friendlyPos="x" id="e2det_639201273_1" lane="639201273_1" length="35" pos="14.87"/>
    <laneAreaDetector file="e2output.xml" freq="60" friendlyPos="x" id="e2det_639201273_2" lane="639201273_2" length="35" pos="14.87"/>
    <laneAreaDetector file="e2output.xml" freq="60" friendlyPos="x" id="e2det_639201273_3" lane="639201273_3" length="35" pos="14.87"/>
    <laneAreaDetector file="e2output.xml" freq="60" friendlyPos="x" id="e2det_642215504#1_0" lane="642215504#1_0" length="18.549999999999997" pos="1.4155343563970746e-15"/>
    <laneAreaDetector file="e2output.xml" freq="60" friendlyPos="x" id="e2det_642215504#1_1" lane="642215504#1_1" length="18.549999999999997" pos="1.4155343563970746e-15"/>
    <laneAreaDetector file="e2output.xml" freq="60" friendlyPos="x" id="e2det_754589333#0_0" lane="754589333#0_0" length="15.27" pos="0"/>
</additional>
