<additional xmlns:xsi="http://www.w3.org/2001/XMLSchema-instance" xsi:noNamespaceSchemaLocation="http://sumo.dlr.de/xsd/additional_file.xsd">
    <laneAreaDetector file="e2output.xml" freq="60" friendlyPos="x" id="e2det_-10852173#10_0" lane="-10852173#10_0" length="35" pos="49.63999999999999"/>
    <laneAreaDetector file="e2output.xml" freq="60" friendlyPos="x" id="e2det_10852173#1_0" lane="10852173#1_0" length="35" pos="130.75"/>
    <laneAreaDetector file="e2output.xml" freq="60" friendlyPos="x" id="e2det_639201265_0" lane="639201265_0" length="35" pos="20.309999999999995"/>
    <laneAreaDetector file="e2output.xml" freq="60" friendlyPos="x" id="e2det_639201265_1" lane="639201265_1" length="35" pos="20.309999999999995"/>
    <laneAreaDetector file="e2output.xml" freq="60" friendlyPos="x" id="e2det_639201265_2" lane="639201265_2" length="35" pos="20.309999999999995"/>
    <laneAreaDetector file="e2output.xml" freq="60" friendlyPos="x" id="e2det_639201268#0_0" lane="639201268#0_0" length="35" pos="16.03"/>
    <laneAreaDetector file="e2output.xml" freq="60" friendlyPos="x" id="e2det_639201268#0_1" lane="639201268#0_1" length="35" pos="16.03"/>
    <laneAreaDetector file="e2output.xml" freq="60" friendlyPos="x" id="e2det_639201268#0_2" lane="639201268#0_2" length="35" pos="16.03"/>
    <laneAreaDetector file="e2output.xml" freq="60" friendlyPos="x" id="e2det_639201268#0_3" lane="639201268#0_3" length="35" pos="16.03"/>
    <laneAreaDetector file="e2output.xml" freq="60" friendlyPos="x" id="e2det_-10852173#11_0" lane="-10852173#11_0" length="35" pos="141.61"/>
    <laneAreaDetector file="e2output.xml" freq="60" friendlyPos="x" id="e2det_-754618796#0_0" lane="-754618796#0_0" length="35" pos="62.449999999999996"/>
    <laneAreaDetector file="e2output.xml" freq="60" friendlyPos="x" id="e2det_10852173#8_0" lane="10852173#8_0" length="35" pos="49.589999999999996"/>
    <laneAreaDetector file="e2output.xml" freq="60" friendlyPos="x" id="e2det_-10852179#7_0" lane="-10852179#7_0" length="35" pos="117.56"/>
    <laneAreaDetector file="e2output.xml" freq="60" friendlyPos="x" id="e2det_639201262_0" lane="639201262_0" length="35" pos="16.509999999999998"/>
    <laneAreaDetector file="e2output.xml" freq="60" friendlyPos="x" id="e2det_639201262_1" lane="639201262_1" length="35" pos="16.509999999999998"/>
    <laneAreaDetector file="e2output.xml" freq="60" friendlyPos="x" id="e2det_639201262_2" lane="639201262_2" length="35" pos="16.509999999999998"/>
    <laneAreaDetector file="e2output.xml" freq="60" friendlyPos="x" id="e2det_639201263_0" lane="639201263_0" length="35" pos="15.549999999999999"/>
    <laneAreaDetector file="e2output.xml" freq="60" friendlyPos="x" id="e2det_639201263_1" lane="639201263_1" length="35" pos="15.549999999999999"/>
    <laneAreaDetector file="e2output.xml" freq="60" friendlyPos="x" id="e2det_639201263_2" lane="639201263_2" length="35" pos="15.549999999999999"/>
    <laneAreaDetector file="e2output.xml" freq="60" friendlyPos="x" id="e2det_E11_0" lane="E11_0" length="35" pos="324.37"/>
    <laneAreaDetector file="e2output.xml" freq="60" friendlyPos="x" id="e2det_-18906766#2_0" lane="-18906766#2_0" length="35" pos="9.729999999999999"/>
    <laneAreaDetector file="e2output.xml" freq="60" friendlyPos="x" id="e2det_-768096367#0_0" lane="-768096367#0_0" length="35" pos="24.449999999999996"/>
    <laneAreaDetector file="e2output.xml" freq="60" friendlyPos="x" id="e2det_18906766#1_0" lane="18906766#1_0" length="35" pos="0.11000000000000085"/>
    <laneAreaDetector file="e2output.xml" freq="60" friendlyPos="x" id="e2det_-18906816#3_0" lane="-18906816#3_0" length="35" pos="70.79"/>
    <laneAreaDetector file="e2output.xml" freq="60" friendlyPos="x" id="e2det_18906805#3_0" lane="18906805#3_0" length="11.33" pos="0"/>
    <laneAreaDetector file="e2output.xml" freq="60" friendlyPos="x" id="e2det_18906816#1_0" lane="18906816#1_0" length="35" pos="268.14"/>
    <laneAreaDetector file="e2output.xml" freq="60" friendlyPos="x" id="e2det_-22330727_0" lane="-22330727_0" length="35" pos="259.07"/>
    <laneAreaDetector file="e2output.xml" freq="60" friendlyPos="x" id="e2det_18906792#1_0" lane="18906792#1_0" length="35" pos="159.78"/>
    <laneAreaDetector file="e2output.xml" freq="60" friendlyPos="x" id="e2det_726161513#0_0" lane="726161513#0_0" length="35" pos="17.04"/>
    <laneAreaDetector file="e2output.xml" freq="60" friendlyPos="x" id="e2det_-637315177#2_0" lane="-637315177#2_0" length="35" pos="21.58"/>
    <laneAreaDetector file="e2output.xml" freq="60" friendlyPos="x" id="e2det_-637315177#2_1" lane="-637315177#2_1" length="35" pos="21.58"/>
    <laneAreaDetector file="e2output.xml" freq="60" friendlyPos="x" id="e2det_637315172#0_0" lane="637315172#0_0" length="35" pos="9.549999999999999"/>
    <laneAreaDetector file="e2output.xml" freq="60" friendlyPos="x" id="e2det_637315172#0_1" lane="637315172#0_1" length="35" pos="9.549999999999999"/>
    <laneAreaDetector file="e2output.xml" freq="60" friendlyPos="x" id="e2det_637315172#0_2" lane="637315172#0_2" length="35" pos="9.549999999999999"/>
    <laneAreaDetector file="e2output.xml" freq="60" friendlyPos="x" id="e2det_637315172#0_3" lane="637315172#0_3" length="35" pos="9.549999999999999"/>
    <laneAreaDetector file="e2output.xml" freq="60" friendlyPos="x" id="e2det_637315175_0" lane="637315175_0" length="35" pos="21.18"/>
    <laneAreaDetector file="e2output.xml" freq="60" friendlyPos="x" id="e2det_637315175_1" lane="637315175_1" length="35" pos="21.18"/>
    <laneAreaDetector file="e2output.xml" freq="60" friendlyPos="x" id="e2det_637315175_2" lane="637315175_2" length="35" pos="21.18"/>
    <laneAreaDetector file="e2output.xml" freq="60" friendlyPos="x" id="e2det_637315175_3" lane="637315175_3" length="35" pos="21.18"/>
    <laneAreaDetector file="e2output.xml" freq="60" friendlyPos="x" id="e2det_-639201242_0" lane="-639201242_0" length="35" pos="14.250000000000002"/>
    <laneAreaDetector file="e2output.xml" freq="60" friendlyPos="x" id="e2det_-639201242_1" lane="-639201242_1" length="35" pos="14.250000000000002"/>
    <laneAreaDetector file="e2output.xml" freq="60" friendlyPos="x" id="e2det_-639201242_2" lane="-639201242_2" length="35" pos="14.250000000000002"/>
    <laneAreaDetector file="e2output.xml" freq="60" friendlyPos="x" id="e2det_1119548224_0" lane="1119548224_0" length="35" pos="13.309999999999997"/>
    <laneAreaDetector file="e2output.xml" freq="60" friendlyPos="x" id="e2det_1119548224_1" lane="1119548224_1" length="35" pos="13.309999999999997"/>
    <laneAreaDetector file="e2output.xml" freq="60" friendlyPos="x" id="e2det_639201244_0" lane="639201244_0" length="35" pos="9.519999999999998"/>
    <laneAreaDetector file="e2output.xml" freq="60" friendlyPos="x" id="e2det_639201244_1" lane="639201244_1" length="35" pos="9.519999999999998"/>
    <laneAreaDetector file="e2output.xml" freq="60" friendlyPos="x" id="e2det_639201244_2" lane="639201244_2" length="35" pos="9.519999999999998"/>
    <laneAreaDetector file="e2output.xml" freq="60" friendlyPos="x" id="e2det_639201247_0" lane="639201247_0" length="33.58" pos="1.4155343563970746e-15"/>
    <laneAreaDetector file="e2output.xml" freq="60" friendlyPos="x" id="e2det_639201247_1" lane="639201247_1" length="33.58" pos="1.4155343563970746e-15"/>
    <laneAreaDetector file="e2output.xml" freq="60" friendlyPos="x" id="e2det_639201247_2" lane="639201247_2" length="33.58" pos="1.4155343563970746e-15"/>
    <laneAreaDetector file="e2output.xml" freq="60" friendlyPos="x" id="e2det_-639201251#1_0" lane="-639201251#1_0" length="35" pos="41.529999999999994"/>
    <laneAreaDetector file="e2output.xml" freq="60" friendlyPos="x" id="e2det_639201254_0" lane="639201254_0" length="35" pos="11.710000000000003"/>
    <laneAreaDetector file="e2output.xml" freq="60" friendlyPos="x" id="e2det_639201254_1" lane="639201254_1" length="35" pos="11.710000000000003"/>
    <laneAreaDetector file="e2output.xml" freq="60" friendlyPos="x" id="e2det_639201254_2" lane="639201254_2" length="35" pos="11.710000000000003"/>
    <laneAreaDetector file="e2output.xml" freq="60" friendlyPos="x" id="e2det_639201255_0" lane="639201255_0" length="35" pos="6.4"/>
    <laneAreaDetector file="e2output.xml" freq="60" friendlyPos="x" id="e2det_639201255_1" lane="639201255_1" length="35" pos="6.4"/>
    <laneAreaDetector file="e2output.xml" freq="60" friendlyPos="x" id="e2det_639201255_2" lane="639201255_2" length="35" pos="6.4"/>
    <laneAreaDetector file="e2output.xml" freq="60" friendlyPos="x" id="e2det_E3_0" lane="E3_0" length="35" pos="308.59999999999997"/>
    <laneAreaDetector file="e2output.xml" freq="60" friendlyPos="x" id="e2det_-754652102#3_0" lane="-754652102#3_0" length="35" pos="57.589999999999996"/>
    <laneAreaDetector file="e2output.xml" freq="60" friendlyPos="x" id="e2det_18905873#2_0" lane="18905873#2_0" length="35" pos="93.31"/>
    <laneAreaDetector file="e2output.xml" freq="60" friendlyPos="x" id="e2det_639201279_0" lane="639201279_0" length="35" pos="15.229999999999999"/>
    <laneAreaDetector file="e2output.xml" freq="60" friendlyPos="x" id="e2det_639201279_1" lane="639201279_1" length="35" pos="15.229999999999999"/>
    <laneAreaDetector file="e2output.xml" freq="60" friendlyPos="x" id="e2det_639201279_2" lane="639201279_2" length="35" pos="15.229999999999999"/>
    <laneAreaDetector file="e2output.xml" freq="60" friendlyPos="x" id="e2det_639201279_3" lane="639201279_3" length="35" pos="15.229999999999999"/>
    <laneAreaDetector file="e2output.xml" freq="60" friendlyPos="x" id="e2det_639201281_0" lane="639201281_0" length="35" pos="37.300000000000004"/>
    <laneAreaDetector file="e2output.xml" freq="60" friendlyPos="x" id="e2det_639201281_1" lane="639201281_1" length="35" pos="37.300000000000004"/>
    <laneAreaDetector file="e2output.xml" freq="60" friendlyPos="x" id="e2det_639201281_2" lane="639201281_2" length="35" pos="37.300000000000004"/>
    <laneAreaDetector file="e2output.xml" freq="60" friendlyPos="x" id="e2det_639201281_3" lane="639201281_3" length="35" pos="37.300000000000004"/>
    <laneAreaDetector file="e2output.xml" freq="60" friendlyPos="x" id="e2det_639201258_0" lane="639201258_0" length="35" pos="6.629999999999997"/>
    <laneAreaDetector file="e2output.xml" freq="60" friendlyPos="x" id="e2det_639201258_1" lane="639201258_1" length="35" pos="6.629999999999997"/>
    <laneAreaDetector file="e2output.xml" freq="60" friendlyPos="x" id="e2det_639201258_2" lane="639201258_2" length="35" pos="6.629999999999997"/>
    <laneAreaDetector file="e2output.xml" freq="60" friendlyPos="x" id="e2det_639201259#0_0" lane="639201259#0_0" length="35" pos="6.9399999999999995"/>
    <laneAreaDetector file="e2output.xml" freq="60" friendlyPos="x" id="e2det_639201259#0_1" lane="639201259#0_1" length="35" pos="6.9399999999999995"/>
    <laneAreaDetector file="e2output.xml" freq="60" friendlyPos="x" id="e2det_639201259#0_2" lane="639201259#0_2" length="35" pos="6.9399999999999995"/>
    <laneAreaDetector file="e2output.xml" freq="60" friendlyPos="x" id="e2det_754576367#0_0" lane="754576367#0_0" length="35" pos="120.68"/>
    <laneAreaDetector file="e2output.xml" freq="60" friendlyPos="x" id="e2det_E4_0" lane="E4_0" length="35" pos="325.34"/>
    <laneAreaDetector file="e2output.xml" freq="60" friendlyPos="x" id="e2det_639201271_0" lane="639201271_0" length="35" pos="18.67"/>
    <laneAreaDetector file="e2output.xml" freq="60" friendlyPos="x" id="e2det_639201271_1" lane="639201271_1" length="35" pos="18.67"/>
    <laneAreaDetector file="e2output.xml" freq="60" friendlyPos="x" id="e2det_639201271_2" lane="639201271_2" length="35" pos="18.67"/>
    <laneAreaDetector file="e2output.xml" freq="60" friendlyPos="x" id="e2det_639201271_3" lane="639201271_3" length="35" pos="18.67"/>
    <laneAreaDetector file="e2output.xml" freq="60" friendlyPos="x" id="e2det_639201273_0" lane="639201273_0" length="35" pos="15.240000000000004"/>
    <laneAreaDetector file="e2output.xml" freq="60" friendlyPos="x" id="e2det_639201273_1" lane="639201273_1" length="35" pos="15.240000000000004"/>
    <laneAreaDetector file="e2output.xml" freq="60" friendlyPos="x" id="e2det_639201273_2" lane="639201273_2" length="35" pos="15.240000000000004"/>
    <laneAreaDetector file="e2output.xml" freq="60" friendlyPos="x" id="e2det_639201273_3" lane="639201273_3" length="35" pos="15.240000000000004"/>
    <laneAreaDetector file="e2output.xml" freq="60" friendlyPos="x" id="e2det_642215504#1_0" lane="642215504#1_0" length="35" pos="13.110000000000001"/>
    <laneAreaDetector file="e2output.xml" freq="60" friendlyPos="x" id="e2det_642215504#1_1" lane="642215504#1_1" length="35" pos="13.110000000000001"/>
    <laneAreaDetector file="e2output.xml" freq="60" friendlyPos="x" id="e2det_754589333#0_0" lane="754589333#0_0" length="35" pos="2.1100000000000008"/>
</additional>
