<?xml version="1.0" encoding="UTF-8"?>

<!-- generated on 2023-09-20 14:18:30.944205 by randomTrips.py v1_18_0+0000-03ecfdea036
<configuration>
    <net-file value="nets/cologne8/cologne8.net.xml"/>
    <output-trip-file value="nets/cologne8/cologne8_train.rou.xml"/>
    <lanes value="True"/>
    <fringe-factor value="10"/>
    <random value="True"/>
    <min-distance value="50.0"/>
    <validate value="True"/>
    <end value="86400.0"/>
    <insertion-rate value="150.0 300.0 450.0 600.0 750.0 900.0 1050.0 1200.0 1350.0 1500.0 1650.0 1800.0 1950.0 2100.0 2250.0 2400.0 2550.0 2700.0 2850.0 3000.0 3150.0 3300.0 3450.0 3600.0"/>
    <random-depart value="True"/>
    <duarouter-remove-loops value="true"/>
</configuration>
-->

<!-- generated on 2023-09-20 14:18:28 by Eclipse SUMO duarouter Version 1.18.0
<configuration xmlns:xsi="http://www.w3.org/2001/XMLSchema-instance" xsi:noNamespaceSchemaLocation="http://sumo.dlr.de/xsd/duarouterConfiguration.xsd">

    <input>
        <net-file value="nets/cologne8/cologne8.net.xml"/>
        <route-files value="nets/cologne8/cologne8_train.rou.xml"/>
    </input>

    <output>
        <output-file value="nets/cologne8/cologne8_train.rou.xml.tmp"/>
        <alternatives-output value="NUL"/>
        <write-trips value="true"/>
    </output>

    <processing>
        <remove-loops value="true"/>
    </processing>

    <time>
        <begin value="0"/>
        <end value="86400.0"/>
    </time>

    <report>
        <no-warnings value="true"/>
        <ignore-errors value="true"/>
        <no-step-log value="true"/>
    </report>

</configuration>
-->

<routes xmlns:xsi="http://www.w3.org/2001/XMLSchema-instance" xsi:noNamespaceSchemaLocation="http://sumo.dlr.de/xsd/routes_file.xsd">
    <trip id="0" depart="10.00" from="-132042183" to="323416262"/>
    <trip id="1" depart="90.00" from="24675285" to="133081985#0"/>
    <trip id="2" depart="99.00" from="132042183" to="23283579#1"/>
    <trip id="3" depart="134.00" from="-23648008#0" to="186623965#17"/>
    <trip id="4" depart="145.00" from="-24610382" to="4936412"/>
    <trip id="5" depart="158.00" from="23647118" to="28675510#7"/>
    <trip id="6" depart="252.00" from="23647118" to="-22917421#4"/>
    <trip id="7" depart="271.00" from="23283474" to="8716807#5"/>
    <trip id="8" depart="276.00" from="-23648008#0" to="22959475#0"/>
    <trip id="9" depart="295.00" from="-23648008#3" to="155723703#0"/>
    <trip id="10" depart="373.00" from="-28675494#1" to="323450710#0"/>
    <trip id="11" depart="385.00" from="-353069169#0" to="-23840888#0"/>
    <trip id="13" depart="424.00" from="-353069169#0" to="-22917421#4"/>
    <trip id="14" depart="451.00" from="-323450710#0" to="-186623965#14"/>
    <trip id="15" depart="505.00" from="-25166682#0" to="28675510#7"/>
    <trip id="16" depart="519.00" from="-225249129#1" to="-23283472#2"/>
    <trip id="17" depart="525.00" from="-353069169#0" to="-23686088#1"/>
    <trip id="18" depart="528.00" from="22959552#0" to="24487264"/>
    <trip id="19" depart="588.00" from="-28675510#11" to="186623965#17"/>
    <trip id="21" depart="601.00" from="24675285" to="28675494#0"/>
    <trip id="22" depart="619.00" from="-23840888#1" to="4936412"/>
    <trip id="24" depart="695.00" from="23840888#0" to="-23283472#2"/>
    <trip id="25" depart="710.00" from="60909001" to="42925825#0"/>
    <trip id="26" depart="719.00" from="22917421#3" to="28675493"/>
    <trip id="27" depart="724.00" from="8716827#0" to="25166682#0"/>
    <trip id="28" depart="789.00" from="24675285" to="28675510#0"/>
    <trip id="29" depart="794.00" from="-186623965#18" to="24487264"/>
    <trip id="31" depart="837.00" from="194017408#0" to="-25168493"/>
    <trip id="32" depart="881.00" from="-132042183" to="24610382"/>
    <trip id="33" depart="894.00" from="-24610382" to="23840971"/>
    <trip id="34" depart="895.00" from="24694889" to="186623965#17"/>
    <trip id="35" depart="897.00" from="-25166682#0" to="-186623965#14"/>
    <trip id="36" depart="914.00" from="-23840971" to="25166682#0"/>
    <trip id="37" depart="951.00" from="160807420" to="23840971"/>
    <trip id="38" depart="985.00" from="-28675510#11" to="-23840712#0"/>
    <trip id="39" depart="1002.00" from="133081987#0" to="23283579#0"/>
    <trip id="40" depart="1035.00" from="-22959475#4" to="-186623965#16"/>
    <trip id="41" depart="1051.00" from="-25166682#0" to="23840888#1"/>
    <trip id="42" depart="1051.00" from="-24487264" to="23283580#0"/>
    <trip id="43" depart="1095.00" from="-28675510#11" to="8716807#5"/>
    <trip id="44" depart="1117.00" from="186623965#9" to="-8716807#4"/>
    <trip id="45" depart="1165.00" from="-225249129#1" to="4936412"/>
    <trip id="46" depart="1194.00" from="-23840972" to="225249129#1"/>
    <trip id="47" depart="1203.00" from="-23840971" to="28675510#7"/>
    <trip id="48" depart="1206.00" from="-25166682#0" to="-23840888#0"/>
    <trip id="49" depart="1223.00" from="-23840971" to="23840935"/>
    <trip id="50" depart="1223.00" from="23286179#1" to="-23283579#1"/>
    <trip id="51" depart="1224.00" from="-23840972" to="28675493"/>
    <trip id="52" depart="1247.00" from="23283470#2" to="23283436"/>
    <trip id="53" depart="1250.00" from="23840713#0" to="297047309#0"/>
    <trip id="54" depart="1266.00" from="-23840712#4" to="-186623965#14"/>
    <trip id="55" depart="1290.00" from="28675493" to="4936412"/>
    <trip id="56" depart="1291.00" from="-186623965#18" to="23283580#0"/>
    <trip id="59" depart="1312.00" from="8716807#6" to="186623965#17"/>
    <trip id="60" depart="1404.00" from="-225249129#1" to="22959475#0"/>
    <trip id="61" depart="1428.00" from="22959552#0" to="23840888#1"/>
    <trip id="62" depart="1434.00" from="133081985#0" to="-23840888#0"/>
    <trip id="63" depart="1447.00" from="-225249129#1" to="23283579#1"/>
    <trip id="65" depart="1466.00" from="-28675494#1" to="-186623965#14"/>
    <trip id="66" depart="1487.00" from="-323450710#0" to="323416262"/>
    <trip id="67" depart="1491.00" from="-24487264" to="24610382"/>
    <trip id="68" depart="1495.00" from="24675285" to="-186623965#14"/>
    <trip id="69" depart="1497.00" from="-132042183" to="186623965#15"/>
    <trip id="70" depart="1498.00" from="297047308" to="23286180"/>
    <trip id="72" depart="1499.00" from="186623965#9" to="323450710#0"/>
    <trip id="73" depart="1509.00" from="-22959475#4" to="23840971"/>
    <trip id="74" depart="1622.00" from="-186623965#18" to="297047309#0"/>
    <trip id="75" depart="1653.00" from="28675510#4" to="42925825#0"/>
    <trip id="77" depart="1716.00" from="-297047309#0" to="23286180"/>
    <trip id="78" depart="1781.00" from="186623965#9" to="-23840712#0"/>
    <trip id="80" depart="1853.00" from="28675510#4" to="186623965#17"/>
    <trip id="81" depart="1881.00" from="23647118" to="28675510#7"/>
    <trip id="83" depart="1914.00" from="-133081985#0" to="155723703#0"/>
    <trip id="84" depart="1925.00" from="23686088#1" to="23840972"/>
    <trip id="85" depart="2025.00" from="-297047309#0" to="-133081985#1"/>
    <trip id="87" depart="2091.00" from="-186623965#18" to="-23840888#0"/>
    <trip id="88" depart="2104.00" from="23283470#5" to="23283579#1"/>
    <trip id="89" depart="2184.00" from="-28691861" to="28675510#7"/>
    <trip id="90" depart="2225.00" from="-25166682#0" to="155723703#0"/>
    <trip id="91" depart="2251.00" from="-132042183" to="323450710#0"/>
    <trip id="92" depart="2266.00" from="-42925825#2" to="155723703#0"/>
    <trip id="93" depart="2277.00" from="-23283579#0" to="23283436"/>
    <trip id="94" depart="2302.00" from="160807420" to="186623965#17"/>
    <trip id="95" depart="2321.00" from="60909001" to="225249129#0"/>
    <trip id="96" depart="2331.00" from="28675510#1" to="22959475#0"/>
    <trip id="97" depart="2361.00" from="-22959475#4" to="-28675510#5"/>
    <trip id="98" depart="2393.00" from="-290365598#1" to="22959475#0"/>
    <trip id="99" depart="2406.00" from="132042183" to="155723703#0"/>
    <trip id="100" depart="2428.00" from="22959552#4" to="-23840888#0"/>
    <trip id="101" depart="2432.00" from="186623965#9" to="28675510#7"/>
    <trip id="102" depart="2445.00" from="-25166682#0" to="225249129#1"/>
    <trip id="103" depart="2455.00" from="-24487264" to="186623965#17"/>
    <trip id="104" depart="2467.00" from="-24487264" to="23840972"/>
    <trip id="105" depart="2469.00" from="-23840971" to="23286180"/>
    <trip id="106" depart="2504.00" from="60909001" to="225249129#1"/>
    <trip id="107" depart="2511.00" from="-23840972" to="25166682#0"/>
    <trip id="108" depart="2522.00" from="23840887#3" to="-8716807#4"/>
    <trip id="109" depart="2544.00" from="-23283579#0" to="28675510#4"/>
    <trip id="110" depart="2562.00" from="-353069169#0" to="225249129#1"/>
    <trip id="112" depart="2631.00" from="-23283580#1" to="-186623965#16"/>
    <trip id="113" depart="2689.00" from="-24487264" to="24610382"/>
    <trip id="114" depart="2738.00" from="24694889" to="-23840712#0"/>
    <trip id="115" depart="2776.00" from="23840888#0" to="225249129#1"/>
    <trip id="117" depart="2796.00" from="22917421#3" to="186623965#17"/>
    <trip id="118" depart="2851.00" from="-186623965#18" to="23283436"/>
    <trip id="120" depart="2865.00" from="22959550#1" to="297047309#0"/>
    <trip id="121" depart="2867.00" from="-23283580#1" to="-186623965#14"/>
    <trip id="122" depart="2871.00" from="23283469" to="155723703#0"/>
    <trip id="123" depart="2883.00" from="186623965#9" to="-8716807#4"/>
    <trip id="124" depart="2886.00" from="-23283580#1" to="8716807#1"/>
    <trip id="125" depart="2926.00" from="-25166682#0" to="155723703#0"/>
    <trip id="127" depart="2965.00" from="23840712#0" to="23840887#2"/>
    <trip id="129" depart="2982.00" from="23840888#0" to="28675510#7"/>
    <trip id="130" depart="3013.00" from="-23283580#1" to="297047309#0"/>
    <trip id="131" depart="3066.00" from="-353069169#0" to="-133081985#0"/>
    <trip id="132" depart="3096.00" from="-42925825#2" to="186623965#17"/>
    <trip id="133" depart="3101.00" from="-28675493" to="-23840712#3"/>
    <trip id="136" depart="3241.00" from="-353069169#0" to="-8716807#0"/>
    <trip id="137" depart="3267.00" from="132042183" to="4936412"/>
    <trip id="138" depart="3292.00" from="-28675510#0" to="23286180"/>
    <trip id="139" depart="3335.00" from="-353069169#0" to="-22917421#4"/>
    <trip id="140" depart="3419.00" from="-297047309#0" to="42925825#0"/>
    <trip id="141" depart="3420.00" from="24675285" to="297047309#0"/>
    <trip id="142" depart="3432.00" from="-28675510#11" to="23283579#1"/>
    <trip id="143" depart="3489.00" from="-22959475#4" to="23840972"/>
    <trip id="144" depart="3509.00" from="-132042183" to="-22917421#4"/>
    <trip id="145" depart="3521.00" from="22917421#3" to="28691861"/>
    <trip id="146" depart="3547.00" from="23840888#0" to="186623965#17"/>
    <trip id="147" depart="3559.00" from="23840712#0" to="-23686088#1"/>
    <trip id="148" depart="3571.00" from="-23840972" to="323450710#0"/>
    <trip id="149" depart="3597.00" from="22917421#3" to="23840971"/>
    <trip id="150" depart="3610.00" from="-23840972" to="186623965#17"/>
    <trip id="152" depart="3627.00" from="-4936412" to="323416262"/>
    <trip id="153" depart="3630.00" from="-23283580#1" to="25166682#0"/>
    <trip id="154" depart="3660.00" from="186623965#9" to="22959550#1"/>
    <trip id="155" depart="3670.00" from="160807420" to="-22917421#4"/>
    <trip id="156" depart="3698.00" from="23686088#0" to="-297047307"/>
    <trip id="157" depart="3723.00" from="-24487264" to="28675510#7"/>
    <trip id="158" depart="3785.00" from="-25166682#0" to="297047309#0"/>
    <trip id="159" depart="3805.00" from="-186623965#18" to="-23840712#0"/>
    <trip id="160" depart="3807.00" from="-24610382" to="23283436"/>
    <trip id="161" depart="3860.00" from="186623965#9" to="23283469"/>
    <trip id="162" depart="3866.00" from="-353069169#0" to="23283436"/>
    <trip id="163" depart="3873.00" from="186623965#9" to="23648008#0"/>
    <trip id="164" depart="3878.00" from="24675285" to="28675510#1"/>
    <trip id="165" depart="3886.00" from="186623965#9" to="-23840888#0"/>
    <trip id="166" depart="3889.00" from="160807420" to="-22917421#4"/>
    <trip id="167" depart="3890.00" from="-28675494#1" to="-28675493"/>
    <trip id="168" depart="3903.00" from="-186623965#18" to="297047310#3"/>
    <trip id="169" depart="3905.00" from="186623965#9" to="23283436"/>
    <trip id="170" depart="3907.00" from="60909001" to="23285888#0"/>
    <trip id="171" depart="3922.00" from="-225249129#1" to="-186623965#14"/>
    <trip id="172" depart="3937.00" from="23686088#0" to="290365598#0"/>
    <trip id="174" depart="3950.00" from="22917421#3" to="23283580#0"/>
    <trip id="175" depart="3962.00" from="-25166682#0" to="28675510#7"/>
    <trip id="176" depart="3963.00" from="-186623965#18" to="23283580#0"/>
    <trip id="177" depart="3967.00" from="23840712#0" to="225249129#1"/>
    <trip id="178" depart="3977.00" from="-8716807#4" to="23840971"/>
    <trip id="179" depart="3982.00" from="-23283580#1" to="186623965#17"/>
    <trip id="180" depart="3988.00" from="24675285" to="225249129#1"/>
    <trip id="181" depart="3997.00" from="-23283580#1" to="-22917421#14"/>
    <trip id="182" depart="4006.00" from="297047310#4" to="225249129#1"/>
    <trip id="184" depart="4020.00" from="-186623965#18" to="23648008#1"/>
    <trip id="185" depart="4047.00" from="-186623965#18" to="-186623965#14"/>
    <trip id="186" depart="4062.00" from="297047310#4" to="323416262"/>
    <trip id="187" depart="4068.00" from="24675285" to="-297047310#3"/>
    <trip id="188" depart="4072.00" from="-22959475#4" to="25166682#0"/>
    <trip id="189" depart="4073.00" from="24675285" to="-186623965#16"/>
    <trip id="190" depart="4075.00" from="-23840972" to="-309744810#1"/>
    <trip id="191" depart="4078.00" from="297047310#3" to="225249129#1"/>
    <trip id="193" depart="4090.00" from="23283473" to="8716807#5"/>
    <trip id="194" depart="4109.00" from="160807420" to="-22917421#4"/>
    <trip id="195" depart="4117.00" from="-297047309#0" to="24487264"/>
    <trip id="196" depart="4119.00" from="186623965#15" to="186623965#17"/>
    <trip id="199" depart="4165.00" from="-297047309#0" to="-23840712#4"/>
    <trip id="200" depart="4167.00" from="-23840935" to="25166682#0"/>
    <trip id="201" depart="4187.00" from="-42925825#2" to="-186623965#14"/>
    <trip id="202" depart="4194.00" from="23840888#0" to="155723703#0"/>
    <trip id="203" depart="4201.00" from="133081987#0" to="-186623965#14"/>
    <trip id="204" depart="4203.00" from="-22959475#4" to="23286180"/>
    <trip id="205" depart="4205.00" from="23840888#0" to="24610382"/>
    <trip id="206" depart="4210.00" from="23840887#0" to="-22917421#4"/>
    <trip id="207" depart="4222.00" from="-28675510#11" to="-22917421#4"/>
    <trip id="208" depart="4223.00" from="-132042183" to="225249129#1"/>
    <trip id="210" depart="4243.00" from="28675510#4" to="186623965#17"/>
    <trip id="211" depart="4259.00" from="24675285" to="23840972"/>
    <trip id="212" depart="4279.00" from="-297047309#0" to="-133081985#1"/>
    <trip id="213" depart="4297.00" from="23840888#1" to="-186623965#14"/>
    <trip id="214" depart="4299.00" from="132042183" to="23283580#0"/>
    <trip id="216" depart="4351.00" from="-353069169#0" to="-186623965#14"/>
    <trip id="217" depart="4371.00" from="297047308" to="22959552#4"/>
    <trip id="218" depart="4373.00" from="-24610382" to="42925825#0"/>
    <trip id="219" depart="4374.00" from="-23840971" to="23283580#0"/>
    <trip id="220" depart="4376.00" from="-24487264" to="-22917421#4"/>
    <trip id="221" depart="4377.00" from="-323450710#0" to="-297047307"/>
    <trip id="222" depart="4409.00" from="22959550#0" to="22959475#0"/>
    <trip id="223" depart="4430.00" from="160807420" to="23283580#0"/>
    <trip id="224" depart="4435.00" from="186623965#9" to="23840971"/>
    <trip id="225" depart="4447.00" from="23283470#5" to="186623965#15"/>
    <trip id="226" depart="4461.00" from="-24487264" to="-23840888#0"/>
    <trip id="227" depart="4461.00" from="-23840972" to="297047309#0"/>
    <trip id="228" depart="4479.00" from="-23648008#3" to="-23840888#0"/>
    <trip id="229" depart="4481.00" from="186623965#9" to="23840888#1"/>
    <trip id="230" depart="4483.00" from="23283470#3" to="186623965#17"/>
    <trip id="231" depart="4503.00" from="-28675494#1" to="155723703#0"/>
    <trip id="232" depart="4522.00" from="24675285" to="23283579#1"/>
    <trip id="233" depart="4524.00" from="-4936412" to="-22917421#4"/>
    <trip id="234" depart="4524.00" from="22959550#4" to="23840971"/>
    <trip id="235" depart="4524.00" from="-4936412" to="323450710#0"/>
    <trip id="236" depart="4527.00" from="23648008#2" to="24487264"/>
    <trip id="237" depart="4554.00" from="297047310#4" to="23283436"/>
    <trip id="238" depart="4575.00" from="-23283580#1" to="297047309#0"/>
    <trip id="239" depart="4582.00" from="-297047309#0" to="23840972"/>
    <trip id="241" depart="4585.00" from="-23840971" to="-186623965#14"/>
    <trip id="242" depart="4591.00" from="-186623965#18" to="23283579#1"/>
    <trip id="243" depart="4614.00" from="-132042183" to="23648008#0"/>
    <trip id="244" depart="4627.00" from="22917421#3" to="-133081985#1"/>
    <trip id="245" depart="4630.00" from="290365598#0" to="-23840888#0"/>
    <trip id="246" depart="4637.00" from="-24610382" to="8716827#0"/>
    <trip id="247" depart="4662.00" from="-353069169#0" to="23283580#0"/>
    <trip id="248" depart="4707.00" from="23840887#3" to="-23840888#0"/>
    <trip id="249" depart="4716.00" from="-22959475#4" to="-22917421#14"/>
    <trip id="250" depart="4727.00" from="-28675510#11" to="186623965#17"/>
    <trip id="251" depart="4742.00" from="-23840971" to="-186623965#14"/>
    <trip id="252" depart="4754.00" from="-186623965#18" to="23840972"/>
    <trip id="253" depart="4756.00" from="23840712#0" to="4936412"/>
    <trip id="254" depart="4793.00" from="132042183" to="23840972"/>
    <trip id="255" depart="4796.00" from="23647118" to="186623965#17"/>
    <trip id="256" depart="4800.00" from="22917421#3" to="-23283472#2"/>
    <trip id="257" depart="4821.00" from="-297047307" to="-23840712#0"/>
    <trip id="259" depart="4852.00" from="-353069169#0" to="23283470#3"/>
    <trip id="260" depart="4877.00" from="-353069169#0" to="4936412"/>
    <trip id="261" depart="4886.00" from="24675285" to="-186623965#14"/>
    <trip id="262" depart="4886.00" from="23840712#0" to="24487264"/>
    <trip id="263" depart="4896.00" from="-24487264" to="22959550#3"/>
    <trip id="264" depart="4896.00" from="-24610382" to="155723703#0"/>
    <trip id="265" depart="4909.00" from="186623965#9" to="-22917421#4"/>
    <trip id="266" depart="4950.00" from="60909001" to="-28675493"/>
    <trip id="267" depart="4954.00" from="-42925825#2" to="23283469"/>
    <trip id="268" depart="4963.00" from="160807420" to="297047309#0"/>
    <trip id="269" depart="4964.00" from="-28675494#1" to="23283470#0"/>
    <trip id="270" depart="4983.00" from="-25166682#0" to="23283436"/>
    <trip id="272" depart="4992.00" from="186623965#9" to="297047309#0"/>
    <trip id="273" depart="5002.00" from="24675285" to="23840971"/>
    <trip id="274" depart="5006.00" from="-42925825#2" to="-23840712#0"/>
    <trip id="275" depart="5016.00" from="133081985#1" to="297047309#0"/>
    <trip id="276" depart="5099.00" from="22917421#3" to="22959552#4"/>
    <trip id="277" depart="5138.00" from="60909001" to="323416262"/>
    <trip id="278" depart="5160.00" from="-42925825#2" to="23648008#1"/>
    <trip id="279" depart="5177.00" from="23840888#0" to="155723703#0"/>
    <trip id="280" depart="5203.00" from="-25166682#0" to="23286180"/>
    <trip id="281" depart="5211.00" from="23285888#0" to="4936412"/>
    <trip id="282" depart="5212.00" from="-309744810#1" to="155723703#0"/>
    <trip id="283" depart="5222.00" from="24675285" to="28675510#1"/>
    <trip id="284" depart="5234.00" from="-24610382" to="22959552#4"/>
    <trip id="285" depart="5235.00" from="-23840935" to="24610382"/>
    <trip id="286" depart="5247.00" from="186623965#9" to="323450710#0"/>
    <trip id="287" depart="5256.00" from="22959552#4" to="23283436"/>
    <trip id="288" depart="5262.00" from="297047310#4" to="-133081985#0"/>
    <trip id="289" depart="5273.00" from="-186623965#18" to="-23840888#1"/>
    <trip id="290" depart="5276.00" from="186623965#9" to="155723703#0"/>
    <trip id="292" depart="5279.00" from="-42925825#2" to="23840935"/>
    <trip id="293" depart="5293.00" from="22917421#3" to="4936412"/>
    <trip id="294" depart="5310.00" from="23840887#3" to="28675510#7"/>
    <trip id="295" depart="5314.00" from="-23840971" to="323450710#0"/>
    <trip id="296" depart="5331.00" from="60909001" to="323416262"/>
    <trip id="297" depart="5346.00" from="25168493" to="-194017408#1"/>
    <trip id="298" depart="5365.00" from="23840712#1" to="23286180"/>
    <trip id="299" depart="5378.00" from="297047310#3" to="24487264"/>
    <trip id="300" depart="5384.00" from="-323450710#0" to="323416262"/>
    <trip id="301" depart="5408.00" from="-22917421#14" to="42925825#0"/>
    <trip id="302" depart="5420.00" from="25168493" to="-194017408#1"/>
    <trip id="303" depart="5431.00" from="-8716807#5" to="28675510#7"/>
    <trip id="304" depart="5468.00" from="133081987#0" to="186623965#17"/>
    <trip id="305" depart="5524.00" from="-186623965#18" to="-23840712#0"/>
    <trip id="306" depart="5526.00" from="-23840972" to="323416262"/>
    <trip id="307" depart="5541.00" from="186623965#9" to="23286179#2"/>
    <trip id="308" depart="5558.00" from="22959552#2" to="-186623965#14"/>
    <trip id="309" depart="5568.00" from="60909001" to="23648008#0"/>
    <trip id="310" depart="5600.00" from="-24487264" to="186623965#17"/>
    <trip id="311" depart="5619.00" from="-23840935" to="25166682#0"/>
    <trip id="312" depart="5633.00" from="-323450710#0" to="23840888#1"/>
    <trip id="313" depart="5639.00" from="160807420" to="323416262"/>
    <trip id="314" depart="5641.00" from="186623965#9" to="-22917421#4"/>
    <trip id="315" depart="5648.00" from="60909001" to="186623965#17"/>
    <trip id="316" depart="5670.00" from="60909001" to="225249129#1"/>
    <trip id="317" depart="5673.00" from="-4936412" to="23283436"/>
    <trip id="318" depart="5682.00" from="60909001" to="-22917421#4"/>
    <trip id="319" depart="5715.00" from="-186623965#16" to="323416262"/>
    <trip id="320" depart="5735.00" from="160807420" to="8716807#1"/>
    <trip id="321" depart="5739.00" from="-186623965#18" to="23283436"/>
    <trip id="322" depart="5749.00" from="23840712#1" to="8716807#0"/>
    <trip id="323" depart="5762.00" from="8716807#5" to="186623965#17"/>
    <trip id="324" depart="5790.00" from="-42925825#2" to="-132042183"/>
    <trip id="325" depart="5799.00" from="-42925825#2" to="23840972"/>
    <trip id="326" depart="5822.00" from="-186623965#18" to="23283579#1"/>
    <trip id="327" depart="5822.00" from="22917421#3" to="323416262"/>
    <trip id="328" depart="5835.00" from="-22959475#4" to="23840971"/>
    <trip id="329" depart="5853.00" from="-23840971" to="23283580#0"/>
    <trip id="330" depart="5873.00" from="-4936412" to="8716807#0"/>
    <trip id="331" depart="5892.00" from="-23840971" to="23283436"/>
    <trip id="332" depart="5899.00" from="-24487264" to="23283436"/>
    <trip id="333" depart="5901.00" from="186623965#9" to="8716827#0"/>
    <trip id="334" depart="5923.00" from="-24487264" to="-23648008#1"/>
    <trip id="335" depart="5925.00" from="297047310#4" to="25166682#0"/>
    <trip id="336" depart="5927.00" from="-23648008#1" to="23286180"/>
    <trip id="337" depart="5930.00" from="-28675510#11" to="225249129#0"/>
    <trip id="339" depart="5936.00" from="-25166682#0" to="-23840888#0"/>
    <trip id="340" depart="5937.00" from="133081987#3" to="25166682#0"/>
    <trip id="341" depart="5944.00" from="-186623965#16" to="-23840888#1"/>
    <trip id="342" depart="5948.00" from="-186623965#16" to="23840935"/>
    <trip id="343" depart="5949.00" from="23647118" to="23283579#1"/>
    <trip id="344" depart="5977.00" from="-24610382" to="155723703#0"/>
    <trip id="345" depart="5986.00" from="-24487264" to="297047309#0"/>
    <trip id="346" depart="5994.00" from="133081985#1" to="23286179#1"/>
    <trip id="347" depart="6039.00" from="-24610382" to="22959475#0"/>
    <trip id="348" depart="6054.00" from="23647118" to="-133081985#0"/>
    <trip id="349" depart="6058.00" from="23283470#2" to="24610382"/>
    <trip id="350" depart="6114.00" from="8716807#1" to="225249129#1"/>
    <trip id="351" depart="6133.00" from="-23840972" to="22959550#1"/>
    <trip id="352" depart="6164.00" from="23840887#2" to="23840935"/>
    <trip id="353" depart="6197.00" from="-225249129#1" to="23840935"/>
    <trip id="354" depart="6225.00" from="-42925825#2" to="24487264"/>
    <trip id="355" depart="6235.00" from="-25166682#0" to="4936412"/>
    <trip id="356" depart="6238.00" from="22917421#3" to="323416262"/>
    <trip id="357" depart="6246.00" from="186623965#9" to="23283436"/>
    <trip id="358" depart="6247.00" from="-24610382" to="23840935"/>
    <trip id="359" depart="6248.00" from="23286179#2" to="23840972"/>
    <trip id="360" depart="6268.00" from="-4936412" to="23286180"/>
    <trip id="361" depart="6270.00" from="297047310#4" to="23648008#1"/>
    <trip id="363" depart="6287.00" from="-42925825#2" to="186623965#17"/>
    <trip id="364" depart="6288.00" from="-25166682#0" to="-28691861"/>
    <trip id="365" depart="6290.00" from="23647118" to="23840971"/>
    <trip id="366" depart="6296.00" from="-297047309#0" to="186623965#17"/>
    <trip id="367" depart="6304.00" from="155600123#0" to="23283580#0"/>
    <trip id="368" depart="6307.00" from="23647118" to="-23686088#0"/>
    <trip id="369" depart="6332.00" from="-297047307" to="186623965#15"/>
    <trip id="370" depart="6333.00" from="-186623965#18" to="25166682#0"/>
    <trip id="371" depart="6349.00" from="186623965#15" to="155723703#0"/>
    <trip id="372" depart="6370.00" from="133081987#0" to="23283580#0"/>
    <trip id="373" depart="6378.00" from="-23283580#1" to="186623965#17"/>
    <trip id="374" depart="6380.00" from="-225249129#0" to="23286180"/>
    <trip id="376" depart="6423.00" from="22959552#5" to="297047309#0"/>
    <trip id="377" depart="6431.00" from="132042183" to="23283436"/>
    <trip id="378" depart="6445.00" from="-290365598#1" to="23283579#1"/>
    <trip id="379" depart="6453.00" from="-24610382" to="-23840712#0"/>
    <trip id="380" depart="6465.00" from="8716807#1" to="42925825#0"/>
    <trip id="381" depart="6499.00" from="-4936412" to="186623965#17"/>
    <trip id="382" depart="6550.00" from="24675285" to="23283470#5"/>
    <trip id="383" depart="6552.00" from="23840888#0" to="23283580#0"/>
    <trip id="384" depart="6558.00" from="23840888#0" to="8716807#1"/>
    <trip id="385" depart="6591.00" from="-28675510#11" to="24487264"/>
    <trip id="386" depart="6591.00" from="133081987#0" to="323416262"/>
    <trip id="387" depart="6602.00" from="22917421#3" to="23283579#1"/>
    <trip id="388" depart="6604.00" from="23840713#2" to="22959475#0"/>
    <trip id="389" depart="6616.00" from="-186623965#18" to="22959475#0"/>
    <trip id="390" depart="6620.00" from="-25166682#0" to="-8716807#5"/>
    <trip id="391" depart="6629.00" from="23686088#0" to="8716807#1"/>
    <trip id="392" depart="6635.00" from="-28675494#1" to="4936412"/>
    <trip id="394" depart="6653.00" from="-25166682#0" to="-28675510#0"/>
    <trip id="395" depart="6663.00" from="-24487264" to="23283580#0"/>
    <trip id="396" depart="6665.00" from="-23840971" to="186623965#17"/>
    <trip id="397" depart="6675.00" from="-23840935" to="4936412"/>
    <trip id="398" depart="6682.00" from="-24487264" to="-8716807#4"/>
    <trip id="399" depart="6692.00" from="-24487264" to="225249129#1"/>
    <trip id="400" depart="6722.00" from="22959552#4" to="23283579#1"/>
    <trip id="401" depart="6724.00" from="-28675510#3" to="23648008#0"/>
    <trip id="403" depart="6731.00" from="23647118" to="323450710#0"/>
    <trip id="405" depart="6757.00" from="-225249129#0" to="23840972"/>
    <trip id="406" depart="6764.00" from="23283473" to="225249129#1"/>
    <trip id="407" depart="6772.00" from="60909001" to="-186623965#16"/>
    <trip id="408" depart="6778.00" from="-28675510#11" to="23283580#0"/>
    <trip id="409" depart="6785.00" from="-323450710#0" to="-22917421#4"/>
    <trip id="410" depart="6786.00" from="-23283580#1" to="8716807#1"/>
    <trip id="411" depart="6791.00" from="23647118" to="186623965#17"/>
    <trip id="412" depart="6844.00" from="24675285" to="23840935"/>
    <trip id="413" depart="6848.00" from="-23840971" to="23283580#0"/>
    <trip id="414" depart="6852.00" from="-23840972" to="23840887#2"/>
    <trip id="415" depart="6870.00" from="-297047309#0" to="290365598#0"/>
    <trip id="416" depart="6896.00" from="-25166682#0" to="-23840712#0"/>
    <trip id="417" depart="6906.00" from="-297047309#0" to="186623965#15"/>
    <trip id="418" depart="6931.00" from="-23840971" to="186623965#17"/>
    <trip id="420" depart="6945.00" from="23686088#0" to="28675510#7"/>
    <trip id="421" depart="6947.00" from="-297047310#3" to="186623965#17"/>
    <trip id="422" depart="6955.00" from="-23840972" to="4936412"/>
    <trip id="423" depart="6973.00" from="8716807#0" to="28675494#0"/>
    <trip id="424" depart="6987.00" from="-297047309#0" to="-23840712#0"/>
    <trip id="425" depart="6995.00" from="-25166682#0" to="23840972"/>
    <trip id="426" depart="6999.00" from="186623965#9" to="-23840712#0"/>
    <trip id="427" depart="7003.00" from="22917421#3" to="225249129#1"/>
    <trip id="428" depart="7014.00" from="-23840971" to="-22917421#4"/>
    <trip id="429" depart="7032.00" from="-4936412" to="297047309#0"/>