<additional xmlns:xsi="http://www.w3.org/2001/XMLSchema-instance" xsi:noNamespaceSchemaLocation="http://sumo.dlr.de/xsd/additional_file.xsd">
    <laneAreaDetector file="e2output.xml" freq="60" friendlyPos="x" id="e2det_-186623965#16_0" lane="-186623965#16_0" length="35" pos="153.01000000000002"/>
    <laneAreaDetector file="e2output.xml" freq="60" friendlyPos="x" id="e2det_-186623965#16_1" lane="-186623965#16_1" length="35" pos="153.01000000000002"/>
    <laneAreaDetector file="e2output.xml" freq="60" friendlyPos="x" id="e2det_-297047310#2_0" lane="-297047310#2_0" length="35" pos="566.36"/>
    <laneAreaDetector file="e2output.xml" freq="60" friendlyPos="x" id="e2det_-42925825#2_0" lane="-42925825#2_0" length="35" pos="219.09"/>
    <laneAreaDetector file="e2output.xml" freq="60" friendlyPos="x" id="e2det_186623965#9_0" lane="186623965#9_0" length="35" pos="124.58000000000001"/>
    <laneAreaDetector file="e2output.xml" freq="60" friendlyPos="x" id="e2det_186623965#9_1" lane="186623965#9_1" length="35" pos="124.58000000000001"/>
    <laneAreaDetector file="e2output.xml" freq="60" friendlyPos="x" id="e2det_-186623965#18_0" lane="-186623965#18_0" length="35" pos="109.64000000000001"/>
    <laneAreaDetector file="e2output.xml" freq="60" friendlyPos="x" id="e2det_-186623965#18_1" lane="-186623965#18_1" length="35" pos="109.64000000000001"/>
    <laneAreaDetector file="e2output.xml" freq="60" friendlyPos="x" id="e2det_-22917421#14_0" lane="-22917421#14_0" length="35" pos="498.49"/>
    <laneAreaDetector file="e2output.xml" freq="60" friendlyPos="x" id="e2det_186623965#15_0" lane="186623965#15_0" length="35" pos="152.85"/>
    <laneAreaDetector file="e2output.xml" freq="60" friendlyPos="x" id="e2det_186623965#15_1" lane="186623965#15_1" length="35" pos="152.85"/>
    <laneAreaDetector file="e2output.xml" freq="60" friendlyPos="x" id="e2det_22917421#3_0" lane="22917421#3_0" length="35" pos="61.160000000000004"/>
    <laneAreaDetector file="e2output.xml" freq="60" friendlyPos="x" id="e2det_-225249129#0_0" lane="-225249129#0_0" length="12.55" pos="0"/>
    <laneAreaDetector file="e2output.xml" freq="60" friendlyPos="x" id="e2det_-24487264_0" lane="-24487264_0" length="35" pos="131.25"/>
    <laneAreaDetector file="e2output.xml" freq="60" friendlyPos="x" id="e2det_23648008#2_0" lane="23648008#2_0" length="35" pos="140.5"/>
    <laneAreaDetector file="e2output.xml" freq="60" friendlyPos="x" id="e2det_-22959475#4_0" lane="-22959475#4_0" length="35" pos="155.49"/>
    <laneAreaDetector file="e2output.xml" freq="60" friendlyPos="x" id="e2det_-28675510#11_0" lane="-28675510#11_0" length="35" pos="222.79999999999998"/>
    <laneAreaDetector file="e2output.xml" freq="60" friendlyPos="x" id="e2det_22917421#5_0" lane="22917421#5_0" length="35" pos="498.37"/>
    <laneAreaDetector file="e2output.xml" freq="60" friendlyPos="x" id="e2det_28675510#4_0" lane="28675510#4_0" length="35" pos="53.65"/>
    <laneAreaDetector file="e2output.xml" freq="60" friendlyPos="x" id="e2det_-23283579#0_0" lane="-23283579#0_0" length="35" pos="26.589999999999996"/>
    <laneAreaDetector file="e2output.xml" freq="60" friendlyPos="x" id="e2det_-28675510#0_0" lane="-28675510#0_0" length="35" pos="87.63000000000001"/>
    <laneAreaDetector file="e2output.xml" freq="60" friendlyPos="x" id="e2det_-8716807#0_0" lane="-8716807#0_0" length="35" pos="65.18"/>
    <laneAreaDetector file="e2output.xml" freq="60" friendlyPos="x" id="e2det_133081985#1_0" lane="133081985#1_0" length="35" pos="48.27"/>
    <laneAreaDetector file="e2output.xml" freq="60" friendlyPos="x" id="e2det_-23648008#0_0" lane="-23648008#0_0" length="35" pos="40.800000000000004"/>
    <laneAreaDetector file="e2output.xml" freq="60" friendlyPos="x" id="e2det_-28675493_0" lane="-28675493_0" length="35" pos="55.74999999999999"/>
    <laneAreaDetector file="e2output.xml" freq="60" friendlyPos="x" id="e2det_-28675493_1" lane="-28675493_1" length="35" pos="55.74999999999999"/>
    <laneAreaDetector file="e2output.xml" freq="60" friendlyPos="x" id="e2det_297047310#4_0" lane="297047310#4_0" length="35" pos="20.059999999999995"/>
    <laneAreaDetector file="e2output.xml" freq="60" friendlyPos="x" id="e2det_-23686088#0_0" lane="-23686088#0_0" length="35" pos="1.689999999999999"/>
    <laneAreaDetector file="e2output.xml" freq="60" friendlyPos="x" id="e2det_-4936412_0" lane="-4936412_0" length="33.93" pos="1.4155343563970746e-15"/>
    <laneAreaDetector file="e2output.xml" freq="60" friendlyPos="x" id="e2det_-28675494#1_0" lane="-28675494#1_0" length="35" pos="38.330000000000005"/>
    <laneAreaDetector file="e2output.xml" freq="60" friendlyPos="x" id="e2det_-28675494#1_1" lane="-28675494#1_1" length="35" pos="38.330000000000005"/>
    <laneAreaDetector file="e2output.xml" freq="60" friendlyPos="x" id="e2det_297047308_0" lane="297047308_0" length="28.419999999999998" pos="1.4155343563970746e-15"/>
    <laneAreaDetector file="e2output.xml" freq="60" friendlyPos="x" id="e2det_8716807#6_0" lane="8716807#6_0" length="35" pos="23.409999999999997"/>
</additional>
