<?xml version="1.0" encoding="UTF-8"?>
<routes xmlns:xsi="http://www.w3.org/2001/XMLSchema-instance" xsi:noNamespaceSchemaLocation="http://sumo.dlr.de/xsd/routes_file.xsd">
	<vType id="bus" vClass="bus" color="green"/>
	<vType id="default_017" vClass="passenger" color="red"/>
    <vType id="random_017" vClass="passenger" color="red"/>
	<vType id="default_016" vClass="passenger" color="red"/>
    <vType id="random_016" vClass="passenger" color="red"/>
	<vType id="default_015" vClass="passenger" color="red"/>
    <vType id="random_015" vClass="passenger" color="red"/>
	<vType id="default_014" vClass="passenger" color="red"/>
    <vType id="random_014" vClass="passenger" color="red"/>
	<vType id="default_013" vClass="passenger" color="red"/>
    <vType id="random_013" vClass="passenger" color="red"/>
    <vType id="default_012" vClass="passenger" color="red"/>
    <vType id="random_012" vClass="passenger" color="red"/>
	<vType id="default_011" vClass="passenger" color="red"/>
    <vType id="random_011" vClass="passenger" color="red"/>
	<vType id="default_010" vClass="passenger" color="red"/>
    <vType id="random_010" vClass="passenger" color="red"/>
	<vType id="default_009" vClass="passenger" color="red"/>
    <vType id="random_009" vClass="passenger" color="red"/>
	<vType id="default_008" vClass="passenger" color="red"/>
    <vType id="random_008" vClass="passenger" color="red"/>
	<vType id="default_007" vClass="passenger" color="red"/>
    <vType id="random_007" vClass="passenger" color="red"/>
	<vType id="default_006" vClass="passenger" color="red"/>
    <vType id="random_006" vClass="passenger" color="red"/>
	<vType id="default_005" vClass="passenger" color="red"/>
    <vType id="random_005" vClass="passenger" color="red"/>
	<vType id="default_004" vClass="passenger" color="red"/>
    <vType id="random_004" vClass="passenger" color="red"/>
	<vType id="default_003" vClass="passenger" color="red"/>
    <vType id="random_003" vClass="passenger" color="red"/>
	<vType id="default_022" vClass="passenger" color="red"/>
    <vType id="random_022" vClass="passenger" color="red"/>
	<vType id="default_021" vClass="passenger" color="red"/>
    <vType id="random_021" vClass="passenger" color="red"/>
	<vType id="default_020" vClass="passenger" color="red"/>
    <vType id="random_020" vClass="passenger" color="red"/>
	<vType id="default_019" vClass="passenger" color="red"/>
    <vType id="random_019" vClass="passenger" color="red"/>
	<vType id="default_018" vClass="passenger" color="red"/>
    <vType id="random_018" vClass="passenger" color="red"/>
	<vType id="default_002" vClass="passenger" color="red"/>
    <vType id="random_002" vClass="passenger" color="red"/>
	<vType id="default_001" vClass="passenger" color="red"/>
    <vType id="random_001" vClass="passenger" color="red"/>
	<trip id="carIn105842:1" type="default_016" depart="0.2" from="653473569#5" to="124812857#0"/>
	<trip id="h8750c1:1" type="default_016" depart="8.5" from="104010354" to="124812857#0"/>
	<trip id="carIn28488:1" type="default_016" depart="10.2" from="653473569#5" to="124812857#0"/>
	<trip id="carIn21562:1" type="default_016" depart="10.8" from="201963537#1" to="-653473569#5"/>
	<trip id="carIn106322:1" type="default_016" depart="11.8" from="653473569#5" to="124812857#0"/>
	<trip id="carIn28951:1" type="default_016" depart="12.7" from="201963537#1" to="-653473569#5"/>
	<trip id="carIn5482:1" type="default_016" depart="13.4" from="653473569#5" to="124812857#0"/>
	<trip id="carIn36103:1" type="default_016" depart="16.0" from="653473569#5" to="124812857#0"/>
	<trip id="carIn102997:1" type="default_016" depart="18.2" from="653473569#5" to="124812857#0"/>
	<trip id="carIn75554:1" type="default_016" depart="20.8" from="653473569#5" to="124812857#0"/>
	<trip id="carIn26332:1" type="default_015" depart="21.0" from="201963537#1" to="104012170"/>
	<trip id="carIn115534:1" type="default_015" depart="21.4" from="201963537#1" to="104012170"/>
	<trip id="h15808c1:1" type="default_016" depart="21.6" from="201963537#1" to="104012170"/>
	<trip id="carIn46350:1" type="default_016" depart="23.2" from="201963537#1" to="-653473569#5"/>
	<trip id="carIn119141:1" type="default_015" depart="23.3" from="201963537#1" to="104012170"/>
	<trip id="carIn75667:1" type="default_016" depart="24.6" from="201963537#1" to="-653473569#5"/>
	<trip id="carIn119185:1" type="default_015" depart="25.2" from="201963537#1" to="104012170"/>
	<trip id="carIn76112:1" type="default_016" depart="26.0" from="201963537#1" to="-653473569#5"/>
	<trip id="carIn79970:1" type="default_016" depart="26.8" from="201963537#1" to="104012170"/>
	<trip id="carIn27521:1" type="default_015" depart="27.5" from="201963537#1" to="-653473569#5"/>
	<trip id="randUni20090:1" type="random_016" depart="28.0" from="653473569#5" to="124812857#0"/>
	<trip id="carIn27195:1" type="default_016" depart="28.1" from="201963537#1" to="104012170"/>
	<trip id="carIn130142:1" type="default_015" depart="29.1" from="201963537#1" to="-653473569#5"/>
	<trip id="randUni34730:1" type="random_016" depart="30.6" from="201963537#1" to="-653473569#5"/>
	<trip id="carIn96537:1" type="default_016" depart="30.7" from="201963537#1" to="104012170"/>
	<trip id="h14257c2:1" type="default_016" depart="32.2" from="201963537#1" to="-653473569#5"/>
	<trip id="carIn26410:1" type="default_016" depart="32.3" from="201963537#1" to="104012170"/>
	<trip id="60R.41" type="bus" depart="33.5" from="104010354" to="124812857#0"/>
	<trip id="carIn107084:1" type="default_016" depart="33.8" from="201963537#1" to="-653473569#5"/>
	<trip id="carIn51024:1" type="default_016" depart="34.0" from="201963537#1" to="104012170"/>
	<trip id="carIn37268:1" type="default_016" depart="35.1" from="653473569#5" to="124812857#0"/>
	<trip id="carIn77943:1" type="default_016" depart="35.4" from="201963537#1" to="-653473569#5"/>
	<trip id="carIn128705:1" type="default_016" depart="35.7" from="201963537#1" to="104012170"/>
	<trip id="carIn13117:1" type="default_016" depart="36.6" from="104010354" to="124812857#0"/>
	<trip id="carIn81046:1" type="default_016" depart="37.0" from="201963537#1" to="-653473569#5"/>
	<trip id="h21989c1:1" type="default_016" depart="37.3" from="201963537#1" to="104012170"/>
	<trip id="h15382c1:3" type="default_016" depart="39.1" from="201963537#1" to="-653473569#5"/>
	<trip id="carIn20106:1" type="default_016" depart="39.5" from="104010354" to="124812857#0"/>
	<trip id="randUni10474:1" type="random_016" depart="40.0" from="201963537#1" to="-653473569#5"/>
	<trip id="carIn56649:1" type="default_016" depart="42.2" from="201963537#1" to="-653473569#5"/>
	<trip id="carIn38625:1" type="default_016" depart="42.3" from="201963537#1" to="-653473569#5"/>
	<trip id="carIn17767:1" type="default_016" depart="43.7" from="201963537#1" to="-653473569#5"/>
	<trip id="carIn77438:1" type="default_016" depart="44.2" from="201963537#1" to="-653473569#5"/>
	<trip id="randUni27349:1" type="random_016" depart="45.1" from="104010354" to="124812857#0"/>
	<trip id="carIn48979:1" type="default_016" depart="45.2" from="201963537#1" to="-653473569#5"/>
	<trip id="h19804c1:3" type="default_016" depart="46.2" from="201963537#1" to="-653473569#5"/>
	<trip id="h20403c1:5" type="default_016" depart="46.6" from="104010354" to="124812857#0"/>
	<trip id="carIn88932:1" type="default_016" depart="46.7" from="201963537#1" to="-653473569#5"/>
	<trip id="carIn767:1" type="default_016" depart="48.2" from="201963537#1" to="-653473569#5"/>
	<trip id="carIn73466:1" type="default_016" depart="48.3" from="104010354" to="124812857#0"/>
	<trip id="carIn64490:1" type="default_016" depart="49.3" from="201963537#1" to="-653473569#5"/>
	<trip id="carIn107842:1" type="default_016" depart="50.3" from="201963537#1" to="-653473569#5"/>
	<trip id="carIn3969:1" type="default_016" depart="52.5" from="201963537#1" to="-653473569#5"/>
	<trip id="carIn129760:1" type="default_016" depart="60.2" from="653473569#5" to="124812857#0"/>
	<trip id="carIn129626:1" type="default_016" depart="62.4" from="653473569#5" to="124812857#0"/>
	<trip id="h21130c2:1" type="default_016" depart="63.4" from="201963537#1" to="104012170"/>
	<trip id="h20539c1:3" type="default_016" depart="64.8" from="653473569#5" to="124812857#0"/>
	<trip id="h20540c1:1" type="default_016" depart="65.1" from="201963537#1" to="-653473569#5"/>
	<trip id="carIn36018:1" type="default_016" depart="66.6" from="104010354" to="-653473569#5"/>
	<trip id="60.39" type="bus" depart="68.5" from="201963537#1" to="104012170"/>
	<trip id="h2215c1:1" type="default_016" depart="69.9" from="104010354" to="124812857#0"/>
	<trip id="carIn100220:1" type="default_016" depart="75.3" from="201963537#1" to="104012170"/>
	<trip id="carIn44740:1" type="default_016" depart="75.4" from="201963537#1" to="-653473569#5"/>
	<trip id="carIn102740:1" type="default_016" depart="75.5" from="104010354" to="124812857#0"/>
	<trip id="carIn64859:1" type="default_016" depart="77.7" from="201963537#1" to="-653473569#5"/>
	<trip id="carIn35345:1" type="default_016" depart="77.9" from="104010354" to="124812857#0"/>
	<trip id="h3139c1:3" type="default_016" depart="83.3" from="104010354" to="124812857#0"/>
	<trip id="carIn26407:1" type="default_016" depart="86.0" from="104010354" to="124812857#0"/>
	<trip id="carIn91254:1" type="default_016" depart="95.9" from="653473569#5" to="124812857#0"/>
	<trip id="carIn78692:1" type="default_016" depart="102.0" from="104010354" to="124812857#0"/>
	<trip id="carIn12775:1" type="default_016" depart="102.5" from="201963537#1" to="-653473569#5"/>
	<trip id="h15353c2:1" type="default_016" depart="112.6" from="201963537#1" to="-653473569#5"/>
	<trip id="carIn96193:1" type="default_016" depart="113.1" from="104010354" to="124812857#0"/>
	<trip id="carIn13362:1" type="default_016" depart="115.4" from="201963537#1" to="-653473569#5"/>
	<trip id="carIn98489:1" type="default_016" depart="116.4" from="104010354" to="124812857#0"/>
	<trip id="carIn70484:1" type="default_016" depart="123.4" from="653473569#5" to="104012170"/>
	<trip id="carIn106797:1" type="default_016" depart="125.0" from="653473569#5" to="124812857#0"/>
	<trip id="h4745c1:1" type="default_016" depart="125.6" from="104010354" to="124812857#0"/>
	<trip id="carIn99385:1" type="default_016" depart="125.7" from="201963537#1" to="-653473569#5"/>
	<trip id="carIn26708:1" type="default_016" depart="126.6" from="653473569#5" to="124812857#0"/>
	<trip id="carIn48988:1" type="default_016" depart="128.1" from="653473569#5" to="104012170"/>
	<trip id="carIn34550:1" type="default_016" depart="130.4" from="653473569#5" to="124812857#0"/>
	<trip id="carIn41791:1" type="default_016" depart="132.2" from="653473569#5" to="124812857#0"/>
	<trip id="carIn13016:1" type="default_016" depart="135.5" from="653473569#5" to="124812857#0"/>
	<trip id="carIn124270:1" type="default_016" depart="136.0" from="104010354" to="124812857#0"/>
	<trip id="carIn70477:1" type="default_016" depart="137.8" from="653473569#5" to="124812857#0"/>
	<trip id="h21189c1:3" type="default_016" depart="138.4" from="201963537#1" to="104012170"/>
	<trip id="h19989c1:1" type="default_016" depart="140.1" from="201963537#1" to="-653473569#5"/>
	<trip id="randUni26227:1" type="random_016" depart="140.5" from="653473569#5" to="124812857#0"/>
	<trip id="carIn92858:1" type="default_016" depart="141.9" from="201963537#1" to="-653473569#5"/>
	<trip id="carIn101439:1" type="default_016" depart="143.7" from="201963537#1" to="-653473569#5"/>
	<trip id="carIn84229:1" type="default_016" depart="145.6" from="201963537#1" to="-653473569#5"/>
	<trip id="carIn7365:1" type="default_016" depart="148.1" from="201963537#1" to="104012170"/>
	<trip id="carIn16842:1" type="default_016" depart="150.4" from="201963537#1" to="-653473569#5"/>
	<trip id="randUni5403:1" type="random_016" depart="153.5" from="104010354" to="-653473569#5"/>
	<trip id="h10915c2:1" type="default_016" depart="156.2" from="104010354" to="-653473569#5"/>
	<trip id="randUni29093:1" type="random_016" depart="158.3" from="201963537#1" to="-653473569#5"/>
	<trip id="carIn42651:1" type="default_016" depart="159.0" from="104010354" to="124812857#0"/>
	<trip id="carIn11547:1" type="default_016" depart="159.9" from="201963537#1" to="-653473569#5"/>
	<trip id="h18300c2:1" type="default_016" depart="160.8" from="104010354" to="124812857#0"/>
	<trip id="carIn32621:1" type="default_016" depart="162.2" from="201963537#1" to="-653473569#5"/>
	<trip id="carIn86816:1" type="default_016" depart="168.3" from="653473569#5" to="124812857#0"/>
	<trip id="h7328c1:1" type="default_016" depart="186.0" from="104010354" to="124812857#0"/>
	<trip id="carIn25314:1" type="default_016" depart="193.7" from="201963537#1" to="-653473569#5"/>
	<trip id="carIn41197:1" type="default_016" depart="206.6" from="104010354" to="124812857#0"/>
	<trip id="h19105c2:3" type="default_016" depart="207.4" from="201963537#1" to="-653473569#5"/>
	<trip id="carIn102915:1" type="default_016" depart="210.1" from="653473569#5" to="124812857#0"/>
	<trip id="randUni33724:1" type="random_016" depart="211.8" from="653473569#5" to="124812857#0"/>
	<trip id="carIn32135:1" type="default_016" depart="212.0" from="104010354" to="124812857#0"/>
	<trip id="carIn106296:1" type="default_016" depart="217.3" from="201963537#1" to="-653473569#5"/>
	<trip id="carIn104643:1" type="default_016" depart="218.9" from="201963537#1" to="-653473569#5"/>
	<trip id="carIn100288:1" type="default_016" depart="220.6" from="104010354" to="124812857#0"/>
	<trip id="carIn29531:1" type="default_016" depart="225.1" from="104010354" to="124812857#0"/>
	<trip id="carIn2912:1" type="default_016" depart="227.4" from="104010354" to="124812857#0"/>
	<trip id="carIn49437:1" type="default_016" depart="229.5" from="104010354" to="124812857#0"/>
	<trip id="carIn114105:1" type="default_016" depart="231.3" from="201963537#1" to="-653473569#5"/>
	<trip id="carIn72316:1" type="default_016" depart="233.1" from="201963537#1" to="-653473569#5"/>
	<trip id="carIn82399:1" type="default_016" depart="234.9" from="201963537#1" to="104012170"/>
	<trip id="h18996c2:1" type="default_016" depart="237.2" from="104010354" to="124812857#0"/>
	<trip id="h3864c1:3" type="default_016" depart="243.7" from="104010354" to="124812857#0"/>
	<trip id="carIn92532:1" type="default_016" depart="245.2" from="104010354" to="-653473569#5"/>
	<trip id="randUni14624:1" type="random_016" depart="248.4" from="104010354" to="-653473569#5"/>
	<trip id="h10591c1:1" type="default_016" depart="250.2" from="104010354" to="-653473569#5"/>
	<trip id="randUni6170:1" type="random_016" depart="257.4" from="201963537#1" to="104012170"/>
	<trip id="h15564c1:1" type="default_016" depart="259.1" from="201963537#1" to="104012170"/>
	<trip id="50R_frequency3.17" type="bus" depart="260.9" from="653473569#5" to="124812857#0"/>
	<trip id="carIn64958:1" type="default_016" depart="262.1" from="201963537#1" to="-653473569#5"/>
	<trip id="h18601c1:3" type="default_016" depart="263.1" from="653473569#5" to="124812857#0"/>
	<trip id="h6245c2:1" type="default_016" depart="264.5" from="653473569#5" to="104012170"/>
	<trip id="h2483c1:1" type="default_016" depart="265.8" from="104010354" to="124812857#0"/>
	<trip id="carIn75793:1" type="default_016" depart="283.2" from="653473569#5" to="104012170"/>
	<trip id="carIn133015:1" type="default_016" depart="284.4" from="201963537#1" to="-653473569#5"/>
	<trip id="h19571c2:3" type="default_016" depart="289.4" from="25149219#1" to="-653473569#5"/>
	<trip id="randUni24217:1" type="random_016" depart="296.4" from="201963537#1" to="-653473569#5"/>
	<trip id="randUni13258:1" type="random_016" depart="296.4" from="201963537#1" to="104012170"/>
	<trip id="carIn82741:1" type="default_016" depart="300.3" from="104010354" to="124812857#0"/>
	<trip id="h19249c2:1" type="default_016" depart="305.2" from="104010354" to="124812857#0"/>
	<trip id="h17593c1:1" type="default_016" depart="311.5" from="201963537#1" to="-653473569#5"/>
	<trip id="carIn125694:1" type="default_016" depart="312.4" from="104010354" to="124812857#0"/>
	<trip id="h8072c1:3" type="default_016" depart="325.9" from="653473569#5" to="104012170"/>
	<trip id="h8633c1:3" type="default_016" depart="334.4" from="104010354" to="124812857#0"/>
	<trip id="carIn112995:1" type="default_016" depart="341.5" from="201963537#1" to="-653473569#5"/>
	<trip id="carIn116805:1" type="default_016" depart="342.7" from="104010354" to="-653473569#5"/>
	<trip id="randUni5976:1" type="random_016" depart="346.6" from="25149219#1" to="-653473569#5"/>
	<trip id="carIn99578:1" type="default_016" depart="349.3" from="104010354" to="124812857#0"/>
	<trip id="carIn23683:1" type="default_016" depart="358.3" from="104010354" to="124812857#0"/>
	<trip id="h15937c1:3" type="default_016" depart="362.8" from="653473569#5" to="124812857#0"/>
	<trip id="carIn85069:1" type="default_016" depart="364.3" from="653473569#5" to="104012170"/>
	<trip id="h15472c1:3" type="default_016" depart="367.3" from="104010354" to="124812857#0"/>
	<trip id="carIn84877:1" type="default_016" depart="368.6" from="653473569#5" to="124812857#0"/>
	<trip id="h14212c1:3" type="default_016" depart="370.0" from="25149219#1" to="-653473569#5"/>
	<trip id="carIn96510:1" type="default_016" depart="370.1" from="104010354" to="124812857#0"/>
	<trip id="carIn9903:1" type="default_016" depart="371.1" from="653473569#5" to="104012170"/>
	<trip id="carIn119432:1" type="default_016" depart="372.0" from="104010354" to="124812857#0"/>
	<trip id="h19940c1:1" type="default_016" depart="372.7" from="25149219#1" to="-653473569#5"/>
	<trip id="carIn60827:1" type="default_016" depart="375.3" from="25149219#1" to="-653473569#5"/>
	<trip id="h15631c1:1" type="default_016" depart="377.9" from="25149219#1" to="-653473569#5"/>
	<trip id="carIn56192:1" type="default_016" depart="380.4" from="653473569#5" to="104012170"/>
	<trip id="carIn84735:1" type="default_016" depart="380.5" from="25149219#1" to="-653473569#5"/>
	<trip id="carIn114414:1" type="default_016" depart="382.0" from="653473569#5" to="104012170"/>
	<trip id="carIn67360:1" type="default_016" depart="383.4" from="201963537#1" to="-653473569#5"/>
	<trip id="carIn12479:1" type="default_016" depart="393.6" from="104010354" to="124812857#0"/>
	<trip id="h20688c2:1" type="default_016" depart="398.4" from="25149219#1" to="-653473569#5"/>
	<trip id="carIn41392:1" type="default_016" depart="402.1" from="104010354" to="124812857#0"/>
	<trip id="h7703c2:3" type="default_016" depart="403.4" from="25149219#1" to="104012170"/>
	<trip id="randUni11417:1" type="random_016" depart="409.4" from="201963537#1" to="-653473569#5"/>
	<trip id="carIn72005:1" type="default_016" depart="412.1" from="25149219#1" to="-653473569#5"/>
	<trip id="carIn68143:1" type="default_016" depart="414.6" from="25149219#1" to="-653473569#5"/>
	<trip id="carIn11789:1" type="default_016" depart="417.1" from="25149219#1" to="-653473569#5"/>
	<trip id="h1498c1:1" type="default_016" depart="418.4" from="653473569#5" to="124812857#0"/>
	<trip id="carIn7612:1" type="default_016" depart="419.6" from="25149219#1" to="-653473569#5"/>
	<trip id="carIn39729:1" type="default_016" depart="420.9" from="104010354" to="124812857#0"/>
	<trip id="carIn131497:1" type="default_016" depart="422.4" from="201963537#1" to="-653473569#5"/>
	<trip id="carIn127325:1" type="default_016" depart="423.0" from="653473569#5" to="124812857#0"/>
	<trip id="h21908c1:3" type="default_016" depart="424.1" from="104010354" to="124812857#0"/>
	<trip id="h22816c2:3" type="default_016" depart="425.9" from="104010354" to="124812857#0"/>
	<trip id="h2510c1:1" type="default_016" depart="428.2" from="104010354" to="124812857#0"/>
	<trip id="randUni3712:1" type="random_016" depart="430.6" from="104010354" to="124812857#0"/>
	<trip id="carIn38599:1" type="default_016" depart="437.8" from="653473569#5" to="124812857#0"/>
	<trip id="randUni2621:1" type="random_016" depart="445.0" from="653473569#5" to="124812857#0"/>
	<trip id="carIn37367:1" type="default_016" depart="453.8" from="653473569#5" to="124812857#0"/>
	<trip id="carIn79899:1" type="default_016" depart="455.1" from="104010354" to="124812857#0"/>
	<trip id="carIn38141:1" type="default_016" depart="458.1" from="653473569#5" to="104012170"/>
	<trip id="carIn53610:1" type="default_016" depart="459.4" from="104010354" to="124812857#0"/>
	<trip id="carIn76776:1" type="default_016" depart="459.7" from="653473569#5" to="104012170"/>
	<trip id="carIn20383:1" type="default_016" depart="460.3" from="104010354" to="124812857#0"/>
	<trip id="carIn68993:1" type="default_016" depart="462.4" from="104010354" to="124812857#0"/>
	<trip id="carIn24856:1" type="default_016" depart="463.0" from="25149219#1" to="-653473569#5"/>
	<trip id="carIn10740:1" type="default_016" depart="464.1" from="104010354" to="124812857#0"/>
	<trip id="carIn98213:1" type="default_016" depart="465.7" from="25149219#1" to="-653473569#5"/>
	<trip id="h923c1:1" type="default_016" depart="468.2" from="25149219#1" to="-653473569#5"/>
	<trip id="randUni10337:1" type="random_016" depart="469.4" from="201963537#1" to="-653473569#5"/>
	<trip id="carIn127284:1" type="default_016" depart="470.6" from="653473569#5" to="104012170"/>
	<trip id="carIn127301:1" type="default_016" depart="470.8" from="25149219#1" to="-653473569#5"/>
	<trip id="h10915c1:1" type="default_016" depart="472.4" from="201963537#1" to="-653473569#5"/>
	<trip id="carIn32403:1" type="default_016" depart="473.4" from="25149219#1" to="-653473569#5"/>
	<trip id="carIn17428:1" type="default_016" depart="487.0" from="104010354" to="124812857#0"/>
	<trip id="carIn90208:1" type="default_016" depart="489.6" from="104010354" to="124812857#0"/>
	<trip id="carIn19971:1" type="default_016" depart="495.1" from="104010354" to="124812857#0"/>
	<trip id="carIn116330:1" type="default_016" depart="497.6" from="104010354" to="124812857#0"/>
	<trip id="carIn62536:1" type="default_016" depart="500.2" from="104010354" to="124812857#0"/>
	<trip id="carIn29260:1" type="default_016" depart="502.8" from="25149219#1" to="-653473569#5"/>
	<trip id="carIn39560:1" type="default_016" depart="502.8" from="104010354" to="124812857#0"/>
	<trip id="carIn52219:1" type="default_016" depart="505.1" from="25149219#1" to="-653473569#5"/>
	<trip id="carIn123383:1" type="default_016" depart="514.0" from="25149219#1" to="-653473569#5"/>
	<trip id="carIn68387:1" type="default_016" depart="515.3" from="104010354" to="124812857#0"/>
	<trip id="h21566c2:1" type="default_016" depart="516.5" from="25149219#1" to="-653473569#5"/>
	<trip id="h21004c2:1" type="default_016" depart="519.0" from="25149219#1" to="-653473569#5"/>
	<trip id="carIn88113:1" type="default_016" depart="521.5" from="25149219#1" to="-653473569#5"/>
	<trip id="carIn3522:1" type="default_016" depart="524.0" from="25149219#1" to="-653473569#5"/>
	<trip id="carIn48247:1" type="default_016" depart="525.5" from="653473569#5" to="104012170"/>
	<trip id="h22316c2:1" type="default_016" depart="526.5" from="25149219#1" to="-653473569#5"/>
	<trip id="carIn2369:1" type="default_016" depart="527.0" from="653473569#5" to="124812857#0"/>
	<trip id="carIn56385:1" type="default_015" depart="528.4" from="201963537#1" to="-653473569#5"/>
	<trip id="carIn64375:1" type="default_016" depart="530.2" from="25149219#1" to="-653473569#5"/>
	<trip id="carIn123917:1" type="default_016" depart="532.8" from="25149219#1" to="-653473569#5"/>
	<trip id="carIn128652:1" type="default_016" depart="535.5" from="25149219#1" to="-653473569#5"/>
	<trip id="h8445c2:3" type="default_016" depart="538.3" from="25149219#1" to="104012170"/>
	<trip id="h23154c1:1" type="default_016" depart="541.1" from="25149219#1" to="-653473569#5"/>
	<trip id="randUni31946:1" type="random_016" depart="547.3" from="104010354" to="124812857#0"/>
	<trip id="h3063c2:1" type="default_016" depart="549.9" from="104010354" to="124812857#0"/>
	<trip id="carIn34148:1" type="default_016" depart="552.1" from="25149219#1" to="-653473569#5"/>
	<trip id="carIn94927:1" type="default_016" depart="552.6" from="104010354" to="124812857#0"/>
	<trip id="carIn68997:1" type="default_016" depart="554.4" from="104010354" to="124812857#0"/>
	<trip id="carIn37169:1" type="default_016" depart="554.6" from="25149219#1" to="104012170"/>
	<trip id="carIn50343:1" type="default_016" depart="556.4" from="104010354" to="124812857#0"/>
	<trip id="carIn37120:1" type="default_016" depart="557.0" from="25149219#1" to="104012170"/>
	<trip id="carIn12160:1" type="default_016" depart="558.3" from="104010354" to="124812857#0"/>
	<trip id="h6245c2:3" type="default_016" depart="559.4" from="25149219#1" to="-653473569#5"/>
	<trip id="carIn19920:1" type="default_016" depart="559.5" from="653473569#5" to="124812857#0"/>
	<trip id="carIn34418:1" type="default_016" depart="561.8" from="25149219#1" to="-653473569#5"/>
	<trip id="carIn41120:1" type="default_016" depart="564.2" from="25149219#1" to="104012170"/>
	<trip id="h576c1:1" type="default_016" depart="566.4" from="201963537#1" to="-653473569#5"/>
	<trip id="carIn86468:1" type="default_016" depart="569.8" from="104010354" to="124812857#0"/>
	<trip id="carIn12663:1" type="default_016" depart="573.2" from="104010354" to="124812857#0"/>
	<trip id="carIn20162:1" type="default_016" depart="575.5" from="104010354" to="124812857#0"/>
	<trip id="carIn5778:1" type="default_016" depart="578.5" from="104010354" to="124812857#0"/>
	<trip id="carIn5041:1" type="default_016" depart="581.3" from="104010354" to="124812857#0"/>
	<trip id="carIn127632:1" type="default_016" depart="583.3" from="104010354" to="124812857#0"/>
	<trip id="carIn56251:1" type="default_016" depart="585.4" from="104010354" to="124812857#0"/>
	<trip id="carIn77315:1" type="default_016" depart="588.8" from="104010354" to="124812857#0"/>
	<trip id="h6054c1:2" type="default_016" depart="603.5" from="25149219#1" to="104012170"/>
	<trip id="randUni18940:1" type="random_016" depart="605.3" from="104010354" to="124812857#0"/>
	<trip id="carIn66513:1" type="default_016" depart="605.8" from="25149219#1" to="104012170"/>
	<trip id="randUni19887:1" type="random_016" depart="610.4" from="201963537#1" to="-653473569#5"/>
	<trip id="h15400c2:1" type="default_016" depart="620.0" from="201963537#1" to="104012170"/>
	<trip id="h21824c1:1" type="default_016" depart="620.3" from="201963537#1" to="104012170"/>
	<trip id="carIn126777:1" type="default_016" depart="620.5" from="201963537#1" to="104012170"/>
	<trip id="carIn89965:1" type="default_016" depart="621.9" from="201963537#1" to="104012170"/>
	<trip id="carIn49867:1" type="default_016" depart="622.7" from="201963537#1" to="104012170"/>
	<trip id="carIn8883:1" type="default_016" depart="624.4" from="201963537#1" to="104012170"/>
	<trip id="carIn15039:1" type="default_016" depart="624.4" from="201963537#1" to="104012170"/>
	<trip id="h15464c1:1" type="default_016" depart="625.9" from="201963537#1" to="104012170"/>
	<trip id="h8685c2:3" type="default_016" depart="626.0" from="201963537#1" to="104012170"/>
	<trip id="carIn128043:1" type="default_016" depart="627.5" from="201963537#1" to="104012170"/>
	<trip id="carIn1027:1" type="default_016" depart="629.0" from="201963537#1" to="104012170"/>
	<trip id="carIn113388:1" type="default_016" depart="630.1" from="201963537#1" to="104012170"/>
	<trip id="carIn127546:1" type="default_016" depart="632.4" from="653473569#5" to="124812857#0"/>
	<trip id="carIn121427:1" type="default_016" depart="636.5" from="653473569#5" to="104012170"/>
	<trip id="h8213c1:1" type="default_016" depart="637.4" from="104010354" to="124812857#0"/>
	<trip id="carIn36263:1" type="default_016" depart="639.3" from="104010354" to="-653473569#5"/>
	<trip id="carIn35162:1" type="default_016" depart="639.8" from="104010354" to="124812857#0"/>
	<trip id="randUni3772:1" type="random_016" depart="641.1" from="653473569#5" to="124812857#0"/>
	<trip id="carIn42850:1" type="default_016" depart="641.3" from="104010354" to="124812857#0"/>
	<trip id="carIn77862:1" type="default_016" depart="643.9" from="104010354" to="124812857#0"/>
	<trip id="h19118c1:3" type="default_016" depart="645.7" from="104010354" to="124812857#0"/>
	<trip id="carIn30844:1" type="default_016" depart="650.0" from="201963537#1" to="104012170"/>
	<trip id="carIn98523:1" type="default_016" depart="651.0" from="201963537#1" to="104012170"/>
	<trip id="h8478c1:3" type="default_016" depart="652.4" from="201963537#1" to="104012170"/>
	<trip id="carIn103533:1" type="default_016" depart="652.5" from="201963537#1" to="104012170"/>
	<trip id="carIn6929:1" type="default_016" depart="653.9" from="201963537#1" to="104012170"/>
	<trip id="carIn86501:1" type="default_016" depart="654.0" from="201963537#1" to="104012170"/>
	<trip id="randUni13455:1" type="random_016" depart="655.6" from="201963537#1" to="104012170"/>
	<trip id="h2865c2:1" type="default_016" depart="657.0" from="653473569#5" to="104012170"/>
	<trip id="carIn53389:1" type="default_016" depart="657.3" from="201963537#1" to="104012170"/>
	<trip id="carIn87704:1" type="default_016" depart="659.0" from="201963537#1" to="104012170"/>
	<trip id="carIn133726:1" type="default_016" depart="660.7" from="201963537#1" to="104012170"/>
	<trip id="carIn118174:1" type="default_016" depart="662.3" from="201963537#1" to="104012170"/>
	<trip id="carIn42999:1" type="default_016" depart="662.5" from="201963537#1" to="104012170"/>
	<trip id="carIn32851:1" type="default_016" depart="664.4" from="201963537#1" to="104012170"/>
	<trip id="carIn132615:1" type="default_016" depart="665.0" from="653473569#5" to="104012170"/>
	<trip id="carIn8344:1" type="default_016" depart="666.2" from="201963537#1" to="104012170"/>
	<trip id="carIn55742:1" type="default_016" depart="666.8" from="653473569#5" to="104012170"/>
	<trip id="carIn34676:1" type="default_016" depart="667.8" from="201963537#1" to="104012170"/>