<?xml version="1.0" encoding="UTF-8"?>

<!-- generated on 2023-09-14 18:39:58.188912 by randomTrips.py v1_18_0+0000-03ecfdea036
<configuration>
    <net-file value="beyers.net.xml"/>
    <output-trip-file value="beyers.rou.xml"/>
    <lanes value="True"/>
    <fringe-factor value="max"/>
    <random value="True"/>
    <min-distance value="100.0"/>
    <validate value="True"/>
    <end value="86400.0"/>
    <insertion-rate value="354.0 195.0 128.0 89.0 158.0 465.0 1754.0 3193.0 3628.0 3641.0 3659.0 3811.0 4077.0 4278.0 3963.0 4041.0 3940.0 4148.0 4077.0 3335.0 2572.0 1796.0 1284.0 822.0"/>
    <random-depart value="True"/>
    <duarouter-remove-loops value="true"/>
</configuration>
-->

<!-- generated on 2023-09-14 18:39:54 by Eclipse SUMO duarouter Version 1.18.0
<configuration xmlns:xsi="http://www.w3.org/2001/XMLSchema-instance" xsi:noNamespaceSchemaLocation="http://sumo.dlr.de/xsd/duarouterConfiguration.xsd">

    <input>
        <net-file value="beyers.net.xml"/>
        <route-files value="beyers.rou.xml"/>
    </input>

    <output>
        <output-file value="beyers.rou.xml.tmp"/>
        <alternatives-output value="NUL"/>
        <write-trips value="true"/>
    </output>

    <processing>
        <remove-loops value="true"/>
    </processing>

    <time>
        <begin value="0"/>
        <end value="86400.0"/>
    </time>

    <report>
        <no-warnings value="true"/>
        <ignore-errors value="true"/>
        <no-step-log value="true"/>
    </report>

</configuration>
-->

<routes xmlns:xsi="http://www.w3.org/2001/XMLSchema-instance" xsi:noNamespaceSchemaLocation="http://sumo.dlr.de/xsd/routes_file.xsd">
    <trip id="0" depart="5.41" from="18905873#0" to="10852173#13"/>
    <trip id="1" depart="6.68" from="-535758968#2" to="-18906825#0"/>
    <trip id="2" depart="7.22" from="-18906766#4" to="637316564#1"/>
    <trip id="3" depart="7.59" from="-10852173#13" to="603623650#2"/>
    <trip id="4" depart="15.00" from="E11" to="10852173#13"/>
    <trip id="5" depart="15.41" from="23149187#0" to="-E1"/>
    <trip id="6" depart="15.58" from="E4" to="-E11"/>
    <trip id="8" depart="55.56" from="-18906766#4" to="767870336"/>
    <trip id="9" depart="56.20" from="-754652102#4" to="18906766#4"/>
    <trip id="10" depart="58.95" from="E2" to="-E1"/>
    <trip id="11" depart="70.92" from="-535758968#2" to="637316564#1"/>
    <trip id="12" depart="81.61" from="542277764" to="-E2"/>
    <trip id="13" depart="84.56" from="18906825#0" to="639201238#2"/>
    <trip id="14" depart="105.95" from="E0" to="535758968#2"/>
    <trip id="15" depart="112.46" from="-603623650#2" to="-E11"/>
    <trip id="16" depart="117.27" from="-10852173#13" to="535758968#2"/>
    <trip id="17" depart="127.46" from="637316557" to="-18906825#0"/>
    <trip id="18" depart="141.78" from="E4" to="-18905873#0"/>
    <trip id="19" depart="142.88" from="-535758968#2" to="-E11"/>
    <trip id="20" depart="144.24" from="-10852173#13" to="-E3"/>
    <trip id="21" depart="154.73" from="23149187#0" to="639201238#2"/>
    <trip id="22" depart="175.68" from="536432068" to="639201238#2"/>
    <trip id="23" depart="176.02" from="18906825#0" to="637316564#1"/>
    <trip id="24" depart="185.98" from="18905873#0" to="637316564#1"/>
    <trip id="25" depart="197.39" from="536432068" to="-18905873#0"/>
    <trip id="26" depart="200.15" from="637316557" to="767870336"/>
    <trip id="27" depart="205.42" from="E0" to="639201238#2"/>
    <trip id="28" depart="214.39" from="536432068" to="754652102#4"/>
    <trip id="29" depart="227.32" from="536432068" to="637316564#1"/>
    <trip id="30" depart="234.66" from="E0" to="10852173#13"/>
    <trip id="31" depart="260.12" from="-10852173#13" to="-E4"/>
    <trip id="32" depart="270.25" from="542277764" to="-E4"/>
    <trip id="33" depart="318.42" from="23149187#0" to="-18905873#0"/>
    <trip id="34" depart="324.54" from="536432068" to="-E11"/>
    <trip id="35" depart="349.78" from="536432068" to="-E11"/>
    <trip id="36" depart="354.78" from="-754652102#4" to="-18905873#0"/>
    <trip id="37" depart="360.56" from="-754652102#4" to="535758968#2"/>
    <trip id="38" depart="366.64" from="637316557" to="-E2"/>
    <trip id="39" depart="372.98" from="-18906766#4" to="-E11"/>
    <trip id="40" depart="377.83" from="E2" to="637316564#1"/>
    <trip id="41" depart="382.64" from="E11" to="535758968#2"/>
    <trip id="42" depart="395.31" from="542277764" to="-E2"/>
    <trip id="43" depart="395.63" from="E4" to="637316564#1"/>
    <trip id="44" depart="396.47" from="18906825#0" to="637316564#1"/>
    <trip id="45" depart="396.73" from="542277764" to="10852173#13"/>
    <trip id="46" depart="409.34" from="-754652102#4" to="10852173#13"/>
    <trip id="47" depart="464.08" from="637316557" to="-E1"/>
    <trip id="48" depart="486.27" from="-754652102#4" to="603623650#2"/>
    <trip id="49" depart="493.29" from="-754652102#4" to="637316564#1"/>
    <trip id="50" depart="507.88" from="-603623650#2" to="-23149187#1"/>
    <trip id="51" depart="512.59" from="-535758968#2" to="18906766#4"/>
    <trip id="52" depart="528.10" from="-603623650#2" to="-E0"/>
    <trip id="54" depart="533.22" from="E4" to="10852173#13"/>
    <trip id="55" depart="549.42" from="18905873#0" to="-23149187#1"/>
    <trip id="56" depart="550.41" from="637316557" to="-18906825#0"/>
    <trip id="57" depart="562.97" from="E0" to="637316564#1"/>
    <trip id="58" depart="565.22" from="536432068" to="603623650#2"/>
    <trip id="60" depart="610.27" from="E2" to="18906766#4"/>
    <trip id="61" depart="614.53" from="536432068" to="10852173#13"/>
    <trip id="62" depart="643.17" from="E11" to="637316564#1"/>
    <trip id="63" depart="643.56" from="18905873#0" to="637316564#1"/>
    <trip id="64" depart="644.53" from="-603623650#2" to="-E4"/>
    <trip id="65" depart="651.05" from="18906825#0" to="-18905873#0"/>
    <trip id="66" depart="651.31" from="18906825#0" to="767870336"/>
    <trip id="67" depart="671.25" from="-10852173#13" to="-E4"/>
    <trip id="68" depart="677.08" from="637316557" to="603623650#2"/>
    <trip id="69" depart="688.12" from="637316557" to="603623650#2"/>
    <trip id="70" depart="713.97" from="23149187#0" to="535758968#2"/>
    <trip id="71" depart="734.47" from="-603623650#2" to="639201238#2"/>
    <trip id="72" depart="739.42" from="E11" to="637316564#1"/>
    <trip id="73" depart="747.86" from="-535758968#2" to="754652102#4"/>
    <trip id="74" depart="761.42" from="637316557" to="18906766#4"/>
    <trip id="75" depart="765.42" from="E4" to="637316564#1"/>
    <trip id="77" depart="785.75" from="536432068" to="639201238#2"/>
    <trip id="78" depart="803.54" from="637316557" to="-E2"/>
    <trip id="79" depart="815.51" from="-10852173#13" to="-18906825#0"/>
    <trip id="80" depart="820.56" from="18905873#0" to="754652102#4"/>
    <trip id="81" depart="821.07" from="-535758968#2" to="639201238#2"/>
    <trip id="82" depart="855.03" from="E11" to="603623650#2"/>
    <trip id="83" depart="867.71" from="-535758968#2" to="-23149187#1"/>
    <trip id="85" depart="891.03" from="E4" to="-18905873#0"/>
    <trip id="86" depart="912.00" from="536432068" to="639201238#2"/>
    <trip id="87" depart="933.12" from="-535758968#2" to="603623650#2"/>
    <trip id="88" depart="935.37" from="E2" to="10852173#13"/>
    <trip id="89" depart="976.73" from="542277764" to="-E2"/>
    <trip id="90" depart="1008.59" from="E3" to="767870336"/>
    <trip id="91" depart="1035.14" from="E3" to="10852173#13"/>
    <trip id="92" depart="1041.03" from="-18906766#4" to="637316564#1"/>
    <trip id="93" depart="1042.69" from="E3" to="639201238#2"/>
    <trip id="94" depart="1044.59" from="E2" to="639201238#2"/>
    <trip id="95" depart="1053.63" from="-754652102#4" to="639201238#2"/>
    <trip id="96" depart="1071.76" from="18905873#0" to="767870336"/>
    <trip id="97" depart="1078.00" from="536432068" to="-18906825#0"/>
    <trip id="98" depart="1078.68" from="-603623650#2" to="-E1"/>
    <trip id="99" depart="1101.64" from="E2" to="639201238#2"/>
    <trip id="100" depart="1104.56" from="637316557" to="-E0"/>
    <trip id="101" depart="1108.15" from="E2" to="-18906825#0"/>
    <trip id="102" depart="1118.69" from="536432068" to="-E1"/>
    <trip id="103" depart="1122.73" from="-18906766#4" to="-E11"/>
    <trip id="104" depart="1134.86" from="E4" to="18906766#4"/>
    <trip id="105" depart="1147.88" from="23149187#0" to="-E4"/>
    <trip id="106" depart="1154.44" from="536432068" to="535758968#2"/>
    <trip id="107" depart="1163.22" from="637316557" to="-18905873#0"/>
    <trip id="108" depart="1175.90" from="-18906766#4" to="-E4"/>
    <trip id="109" depart="1180.44" from="E4" to="767870336"/>
    <trip id="110" depart="1187.08" from="536432068" to="-23149187#1"/>
    <trip id="111" depart="1187.47" from="-603623650#2" to="-E0"/>
    <trip id="112" depart="1201.41" from="23149187#0" to="-E4"/>
    <trip id="113" depart="1222.68" from="542277764" to="535758968#2"/>
    <trip id="114" depart="1236.12" from="542277764" to="-18906825#0"/>
    <trip id="115" depart="1247.24" from="542277764" to="-E0"/>
    <trip id="116" depart="1260.63" from="637316557" to="603623650#2"/>
    <trip id="117" depart="1265.64" from="-754652102#4" to="639201238#2"/>
    <trip id="118" depart="1285.81" from="23149187#0" to="-E3"/>
    <trip id="119" depart="1297.54" from="-754652102#4" to="535758968#2"/>
    <trip id="120" depart="1355.59" from="E4" to="18906766#4"/>
    <trip id="121" depart="1365.83" from="-10852173#13" to="18906766#4"/>
    <trip id="122" depart="1380.24" from="-603623650#2" to="-E1"/>
    <trip id="123" depart="1382.95" from="23149187#0" to="-E4"/>
    <trip id="124" depart="1393.03" from="-10852173#13" to="-E2"/>
    <trip id="125" depart="1418.71" from="-18906766#4" to="767870336"/>
    <trip id="126" depart="1422.42" from="18906825#0" to="-E4"/>
    <trip id="127" depart="1434.51" from="-754652102#4" to="603623650#2"/>
    <trip id="128" depart="1440.10" from="E11" to="-E2"/>
    <trip id="129" depart="1442.44" from="637316557" to="-E4"/>
    <trip id="130" depart="1452.86" from="536432068" to="637316564#1"/>
    <trip id="131" depart="1455.17" from="E4" to="754652102#4"/>
    <trip id="132" depart="1462.86" from="-603623650#2" to="-18906825#0"/>
    <trip id="133" depart="1481.36" from="18906825#0" to="603623650#2"/>
    <trip id="134" depart="1482.71" from="-754652102#4" to="639201238#2"/>
    <trip id="135" depart="1494.20" from="E0" to="-E2"/>
    <trip id="136" depart="1495.12" from="E0" to="637316564#1"/>
    <trip id="137" depart="1512.53" from="E2" to="18906766#4"/>
    <trip id="138" depart="1536.64" from="E0" to="18906766#4"/>
    <trip id="139" depart="1551.02" from="18906825#0" to="639201238#2"/>
    <trip id="140" depart="1551.75" from="-603623650#2" to="10852173#13"/>
    <trip id="141" depart="1552.25" from="-18906766#4" to="603623650#2"/>
    <trip id="142" depart="1576.05" from="536432068" to="-E1"/>
    <trip id="143" depart="1579.10" from="-18906766#4" to="637316564#1"/>
    <trip id="144" depart="1579.46" from="637316557" to="-18906825#0"/>
    <trip id="145" depart="1582.46" from="23149187#0" to="-18905873#0"/>
    <trip id="146" depart="1583.36" from="E4" to="535758968#2"/>
    <trip id="147" depart="1588.10" from="-10852173#13" to="639201238#2"/>
    <trip id="148" depart="1591.15" from="-10852173#13" to="637316564#1"/>
    <trip id="149" depart="1596.90" from="536432068" to="639201238#2"/>
    <trip id="150" depart="1598.58" from="637316557" to="767870336"/>
    <trip id="151" depart="1625.64" from="-10852173#13" to="-23149187#1"/>
    <trip id="152" depart="1650.97" from="18905873#0" to="-E0"/>
    <trip id="153" depart="1659.02" from="E3" to="-23149187#1"/>
    <trip id="154" depart="1665.05" from="536432068" to="-E3"/>
    <trip id="155" depart="1673.36" from="637316557" to="603623650#2"/>
    <trip id="156" depart="1679.95" from="18905873#0" to="18906766#4"/>
    <trip id="158" depart="1692.22" from="E0" to="603623650#2"/>
    <trip id="159" depart="1724.29" from="E0" to="767870336"/>
    <trip id="160" depart="1729.66" from="637316557" to="603623650#2"/>
    <trip id="161" depart="1737.64" from="E0" to="-18905873#0"/>
    <trip id="162" depart="1744.32" from="536432068" to="637316564#1"/>
    <trip id="163" depart="1744.98" from="18906825#0" to="-E4"/>
    <trip id="164" depart="1751.54" from="23149187#0" to="754652102#4"/>
    <trip id="165" depart="1754.36" from="536432068" to="-E0"/>
    <trip id="166" depart="1756.19" from="23149187#0" to="-E3"/>
    <trip id="167" depart="1763.64" from="18906825#0" to="-18905873#0"/>
    <trip id="168" depart="1795.34" from="E11" to="-E0"/>
    <trip id="169" depart="1805.80" from="-603623650#2" to="639201238#2"/>
    <trip id="170" depart="1823.19" from="542277764" to="603623650#2"/>
    <trip id="171" depart="1833.93" from="18905873#0" to="637316564#1"/>
    <trip id="172" depart="1834.63" from="-603623650#2" to="637316564#1"/>
    <trip id="173" depart="1840.95" from="23149187#0" to="-E11"/>
    <trip id="175" depart="1850.61" from="637316557" to="754652102#4"/>
    <trip id="177" depart="1869.56" from="536432068" to="-E2"/>
    <trip id="178" depart="1877.39" from="-603623650#2" to="-E11"/>
    <trip id="179" depart="1883.61" from="637316557" to="10852173#13"/>
    <trip id="180" depart="1889.27" from="E3" to="603623650#2"/>
    <trip id="181" depart="1890.47" from="E3" to="-18906825#0"/>
    <trip id="182" depart="1892.00" from="E3" to="754652102#4"/>
    <trip id="183" depart="1910.42" from="-603623650#2" to="639201238#2"/>
    <trip id="184" depart="1920.07" from="-603623650#2" to="637316564#1"/>
    <trip id="185" depart="1922.81" from="637316557" to="603623650#2"/>
    <trip id="186" depart="1939.29" from="542277764" to="-E2"/>
    <trip id="187" depart="1939.73" from="637316557" to="639201238#2"/>
    <trip id="189" depart="1976.59" from="-18906766#4" to="639201238#2"/>
    <trip id="190" depart="1988.03" from="E11" to="639201238#2"/>
    <trip id="191" depart="1995.20" from="-535758968#2" to="-23149187#1"/>
    <trip id="192" depart="1996.56" from="536432068" to="637316564#1"/>
    <trip id="193" depart="1997.25" from="-10852173#13" to="-18906825#0"/>
    <trip id="194" depart="2002.98" from="637316557" to="603623650#2"/>
    <trip id="195" depart="2007.75" from="23149187#0" to="637316564#1"/>
    <trip id="196" depart="2019.22" from="-18906766#4" to="10852173#13"/>
    <trip id="197" depart="2022.76" from="18905873#0" to="603623650#2"/>
    <trip id="198" depart="2027.49" from="-18906766#4" to="-E4"/>
    <trip id="199" depart="2034.51" from="E2" to="637316564#1"/>
    <trip id="200" depart="2036.66" from="-10852173#13" to="639201238#2"/>
    <trip id="201" depart="2046.80" from="637316557" to="754652102#4"/>
    <trip id="202" depart="2058.31" from="542277764" to="603623650#2"/>
    <trip id="203" depart="2074.53" from="E3" to="639201238#2"/>
    <trip id="204" depart="2093.49" from="-754652102#4" to="-E4"/>
    <trip id="205" depart="2102.51" from="536432068" to="637316564#1"/>
    <trip id="206" depart="2103.22" from="E3" to="603623650#2"/>
    <trip id="208" depart="2112.76" from="637316557" to="18906766#4"/>
    <trip id="209" depart="2114.73" from="-535758968#2" to="-E3"/>
    <trip id="210" depart="2121.56" from="18906825#0" to="637316564#1"/>
    <trip id="211" depart="2128.34" from="637316557" to="10852173#13"/>
    <trip id="212" depart="2136.44" from="E2" to="637316564#1"/>
    <trip id="213" depart="2147.44" from="536432068" to="639201238#2"/>
    <trip id="214" depart="2154.00" from="542277764" to="637316564#1"/>
    <trip id="215" depart="2154.27" from="-603623650#2" to="-23149187#1"/>
    <trip id="216" depart="2159.25" from="18906825#0" to="639201238#2"/>
    <trip id="217" depart="2169.32" from="-603623650#2" to="-E1"/>
    <trip id="218" depart="2172.71" from="-18906766#4" to="-E1"/>
    <trip id="219" depart="2205.86" from="E3" to="-E1"/>
    <trip id="220" depart="2207.15" from="18905873#0" to="-E3"/>
    <trip id="221" depart="2211.36" from="-18906766#4" to="639201238#2"/>
    <trip id="222" depart="2211.44" from="-603623650#2" to="-E3"/>
    <trip id="224" depart="2241.47" from="18906825#0" to="18906766#4"/>
    <trip id="225" depart="2251.85" from="-18906766#4" to="637316564#1"/>
    <trip id="226" depart="2259.22" from="637316557" to="10852173#13"/>
    <trip id="227" depart="2259.36" from="536432068" to="-E1"/>
    <trip id="228" depart="2263.93" from="637316557" to="-18905873#0"/>
    <trip id="229" depart="2275.85" from="-603623650#2" to="754652102#4"/>
    <trip id="230" depart="2275.97" from="E11" to="535758968#2"/>
    <trip id="231" depart="2278.76" from="-603623650#2" to="-E0"/>
    <trip id="232" depart="2298.53" from="E0" to="-E1"/>
    <trip id="233" depart="2299.12" from="E3" to="18906766#4"/>
    <trip id="235" depart="2321.07" from="536432068" to="-E3"/>
    <trip id="236" depart="2321.47" from="E11" to="767870336"/>
    <trip id="237" depart="2323.05" from="23149187#0" to="637316564#1"/>
    <trip id="239" depart="2328.83" from="536432068" to="-E4"/>
    <trip id="240" depart="2339.05" from="18905873#0" to="18906766#4"/>
    <trip id="241" depart="2340.25" from="536432068" to="637316564#1"/>
    <trip id="242" depart="2349.64" from="-10852173#13" to="603623650#2"/>
    <trip id="243" depart="2353.34" from="23149187#0" to="-E0"/>
    <trip id="244" depart="2355.46" from="E11" to="639201238#2"/>
    <trip id="245" depart="2364.66" from="E4" to="-18906825#0"/>
    <trip id="246" depart="2390.49" from="-603623650#2" to="-E1"/>
    <trip id="247" depart="2401.93" from="637316557" to="-E2"/>
    <trip id="248" depart="2431.02" from="E0" to="603623650#2"/>
    <trip id="249" depart="2431.29" from="-10852173#13" to="-E4"/>
    <trip id="251" depart="2462.66" from="18906825#0" to="-E4"/>
    <trip id="252" depart="2464.22" from="-535758968#2" to="-E0"/>
    <trip id="253" depart="2472.08" from="536432068" to="603623650#2"/>
    <trip id="254" depart="2473.54" from="536432068" to="-E2"/>
    <trip id="255" depart="2482.47" from="23149187#0" to="-18906825#0"/>
    <trip id="256" depart="2505.46" from="E2" to="637316564#1"/>
    <trip id="257" depart="2520.86" from="E3" to="637316564#1"/>
    <trip id="258" depart="2549.25" from="637316557" to="767870336"/>
    <trip id="259" depart="2558.83" from="E4" to="-E1"/>
    <trip id="260" depart="2578.69" from="E4" to="637316564#1"/>
    <trip id="261" depart="2604.90" from="536432068" to="637316564#1"/>
    <trip id="262" depart="2606.66" from="-535758968#2" to="637316564#1"/>
    <trip id="263" depart="2609.07" from="-603623650#2" to="-E4"/>
    <trip id="264" depart="2610.92" from="23149187#0" to="18906766#4"/>
    <trip id="265" depart="2631.73" from="-10852173#13" to="18906766#4"/>
    <trip id="266" depart="2641.61" from="23149187#0" to="-E0"/>
    <trip id="267" depart="2642.85" from="536432068" to="754652102#4"/>
    <trip id="268" depart="2644.36" from="E2" to="754652102#4"/>
    <trip id="269" depart="2648.47" from="637316557" to="639201238#2"/>
    <trip id="270" depart="2657.76" from="E0" to="-23149187#1"/>
    <trip id="271" depart="2660.51" from="536432068" to="754652102#4"/>
    <trip id="272" depart="2679.44" from="536432068" to="767870336"/>
    <trip id="273" depart="2690.78" from="23149187#0" to="603623650#2"/>
    <trip id="274" depart="2696.98" from="-754652102#4" to="637316564#1"/>
    <trip id="275" depart="2697.10" from="-603623650#2" to="-E0"/>
    <trip id="276" depart="2707.46" from="E0" to="637316564#1"/>
    <trip id="277" depart="2760.47" from="E0" to="-E1"/>
    <trip id="278" depart="2773.34" from="E0" to="603623650#2"/>
    <trip id="280" depart="2788.80" from="23149187#0" to="-E3"/>
    <trip id="281" depart="2789.85" from="18905873#0" to="603623650#2"/>
    <trip id="282" depart="2798.32" from="18905873#0" to="603623650#2"/>
    <trip id="283" depart="2820.64" from="536432068" to="-E11"/>
    <trip id="284" depart="2871.19" from="-754652102#4" to="-E4"/>
    <trip id="285" depart="2876.12" from="-754652102#4" to="-E0"/>
    <trip id="286" depart="2880.03" from="637316557" to="-E11"/>
    <trip id="287" depart="2883.83" from="536432068" to="767870336"/>
    <trip id="289" depart="2885.53" from="23149187#0" to="639201238#2"/>
    <trip id="290" depart="2886.51" from="E3" to="-E11"/>
    <trip id="291" depart="2903.78" from="-754652102#4" to="-18905873#0"/>
    <trip id="292" depart="2911.61" from="-603623650#2" to="-18905873#0"/>
    <trip id="293" depart="2924.46" from="536432068" to="-18906825#0"/>
    <trip id="294" depart="2925.59" from="637316557" to="-18906825#0"/>
    <trip id="295" depart="2931.31" from="-535758968#2" to="-E2"/>
    <trip id="296" depart="2944.83" from="-10852173#13" to="-E0"/>
    <trip id="297" depart="2961.46" from="536432068" to="-18906825#0"/>
    <trip id="298" depart="2979.68" from="-603623650#2" to="639201238#2"/>
    <trip id="299" depart="2985.00" from="18906825#0" to="637316564#1"/>
    <trip id="300" depart="3027.83" from="542277764" to="-E1"/>
    <trip id="301" depart="3044.86" from="-603623650#2" to="767870336"/>
    <trip id="302" depart="3055.93" from="E11" to="-E4"/>
    <trip id="303" depart="3065.64" from="E11" to="-18906825#0"/>
    <trip id="304" depart="3069.31" from="-754652102#4" to="-E0"/>
    <trip id="305" depart="3072.29" from="-535758968#2" to="603623650#2"/>
    <trip id="306" depart="3074.19" from="-603623650#2" to="-E3"/>
    <trip id="307" depart="3089.05" from="-535758968#2" to="-E11"/>
    <trip id="308" depart="3134.59" from="E4" to="-18906825#0"/>
    <trip id="309" depart="3148.37" from="E2" to="637316564#1"/>
    <trip id="310" depart="3157.29" from="-754652102#4" to="637316564#1"/>
    <trip id="311" depart="3162.15" from="E0" to="639201238#2"/>
    <trip id="312" depart="3176.37" from="536432068" to="-18905873#0"/>
    <trip id="313" depart="3180.10" from="E4" to="637316564#1"/>
    <trip id="314" depart="3197.03" from="E2" to="-18905873#0"/>
    <trip id="316" depart="3212.53" from="E4" to="767870336"/>
    <trip id="318" depart="3248.63" from="536432068" to="-E3"/>
    <trip id="319" depart="3252.32" from="18906825#0" to="-23149187#1"/>
    <trip id="320" depart="3269.80" from="536432068" to="754652102#4"/>
    <trip id="321" depart="3281.37" from="-10852173#13" to="639201238#2"/>
    <trip id="322" depart="3283.85" from="637316557" to="-18905873#0"/>
    <trip id="323" depart="3289.20" from="18906825#0" to="639201238#2"/>
    <trip id="324" depart="3294.51" from="E2" to="18906766#4"/>
    <trip id="325" depart="3333.17" from="E0" to="603623650#2"/>
    <trip id="326" depart="3361.20" from="18905873#0" to="18906766#4"/>
    <trip id="327" depart="3361.51" from="637316557" to="-E2"/>
    <trip id="328" depart="3367.71" from="-754652102#4" to="-E3"/>
    <trip id="329" depart="3376.83" from="E4" to="-E1"/>
    <trip id="330" depart="3385.27" from="E0" to="-18905873#0"/>
    <trip id="331" depart="3395.34" from="E3" to="603623650#2"/>
    <trip id="332" depart="3395.51" from="E11" to="-E1"/>
    <trip id="333" depart="3397.88" from="-603623650#2" to="754652102#4"/>
    <trip id="334" depart="3412.36" from="E11" to="18906766#4"/>
    <trip id="335" depart="3415.90" from="E11" to="18906766#4"/>
    <trip id="336" depart="3438.02" from="-603623650#2" to="754652102#4"/>
    <trip id="337" depart="3441.46" from="-18906766#4" to="-E11"/>
    <trip id="338" depart="3449.25" from="23149187#0" to="-18905873#0"/>
    <trip id="339" depart="3472.64" from="-10852173#13" to="-E4"/>
    <trip id="340" depart="3479.53" from="23149187#0" to="-18905873#0"/>
    <trip id="341" depart="3486.56" from="542277764" to="-E1"/>
    <trip id="342" depart="3488.97" from="637316557" to="-E4"/>
    <trip id="343" depart="3505.14" from="536432068" to="-E0"/>
    <trip id="344" depart="3518.83" from="536432068" to="-E11"/>
    <trip id="345" depart="3524.14" from="E4" to="-23149187#1"/>
    <trip id="346" depart="3526.85" from="18906825#0" to="637316564#1"/>
    <trip id="348" depart="3540.24" from="E3" to="535758968#2"/>
    <trip id="349" depart="3549.81" from="18905873#0" to="-E1"/>
    <trip id="350" depart="3552.08" from="-603623650#2" to="-E0"/>
    <trip id="351" depart="3557.27" from="-535758968#2" to="637316564#1"/>
    <trip id="352" depart="3558.19" from="-10852173#13" to="603623650#2"/>
    <trip id="353" depart="3567.56" from="-754652102#4" to="535758968#2"/>
    <trip id="354" depart="3603.46" from="E4" to="-E0"/>
    <trip id="355" depart="3620.00" from="18906825#0" to="754652102#4"/>
    <trip id="356" depart="3622.77" from="18905873#0" to="-23149187#1"/>
    <trip id="359" depart="3667.92" from="E4" to="767870336"/>
    <trip id="360" depart="3687.62" from="-535758968#2" to="-E1"/>
    <trip id="361" depart="3700.92" from="-535758968#2" to="-E11"/>
    <trip id="363" depart="3723.31" from="-18906766#4" to="-23149187#1"/>
    <trip id="364" depart="3733.08" from="E0" to="-E1"/>
    <trip id="365" depart="3752.00" from="E11" to="637316564#1"/>
    <trip id="366" depart="3772.92" from="E11" to="10852173#13"/>
    <trip id="367" depart="3783.46" from="536432068" to="637316564#1"/>
    <trip id="368" depart="3784.77" from="536432068" to="767870336"/>
    <trip id="369" depart="3795.31" from="E0" to="603623650#2"/>
    <trip id="370" depart="3827.77" from="-754652102#4" to="-E4"/>
    <trip id="371" depart="3853.92" from="-535758968#2" to="767870336"/>
    <trip id="372" depart="3893.15" from="542277764" to="-E1"/>
    <trip id="374" depart="3910.08" from="18906825#0" to="18906766#4"/>
    <trip id="375" depart="3910.23" from="18906825#0" to="-23149187#1"/>
    <trip id="376" depart="3927.92" from="-10852173#13" to="-E1"/>
    <trip id="377" depart="3955.46" from="637316557" to="-23149187#1"/>
    <trip id="378" depart="3986.77" from="536432068" to="-E4"/>
    <trip id="379" depart="3987.54" from="637316557" to="-E3"/>
    <trip id="380" depart="3992.08" from="536432068" to="639201238#2"/>
    <trip id="381" depart="4012.85" from="E2" to="18906766#4"/>
    <trip id="382" depart="4020.38" from="-754652102#4" to="767870336"/>
    <trip id="383" depart="4038.69" from="E3" to="603623650#2"/>
    <trip id="384" depart="4085.08" from="536432068" to="637316564#1"/>
    <trip id="385" depart="4101.54" from="-535758968#2" to="767870336"/>
    <trip id="386" depart="4108.54" from="637316557" to="-E1"/>
    <trip id="387" depart="4183.15" from="-10852173#13" to="639201238#2"/>
    <trip id="388" depart="4189.31" from="18906825#0" to="-E2"/>
    <trip id="389" depart="4192.54" from="E2" to="603623650#2"/>
    <trip id="390" depart="4192.77" from="-18906766#4" to="-E1"/>
    <trip id="391" depart="4199.46" from="-603623650#2" to="-E1"/>
    <trip id="392" depart="4220.77" from="-10852173#13" to="535758968#2"/>
    <trip id="393" depart="4226.15" from="637316557" to="-E0"/>
    <trip id="394" depart="4300.85" from="542277764" to="-18906825#0"/>
    <trip id="395" depart="4321.08" from="-10852173#13" to="639201238#2"/>
    <trip id="396" depart="4339.46" from="-603623650#2" to="535758968#2"/>
    <trip id="397" depart="4352.69" from="536432068" to="-E0"/>
    <trip id="398" depart="4357.54" from="E2" to="-E1"/>
    <trip id="399" depart="4375.62" from="637316557" to="639201238#2"/>
    <trip id="400" depart="4391.69" from="637316557" to="10852173#13"/>
    <trip id="401" depart="4397.77" from="536432068" to="637316564#1"/>
    <trip id="402" depart="4401.85" from="-18906766#4" to="603623650#2"/>
    <trip id="403" depart="4428.92" from="-18906766#4" to="535758968#2"/>
    <trip id="404" depart="4457.08" from="637316557" to="603623650#2"/>
    <trip id="405" depart="4484.08" from="18906825#0" to="-E3"/>
    <trip id="406" depart="4491.38" from="23149187#0" to="603623650#2"/>
    <trip id="407" depart="4495.54" from="637316557" to="-23149187#1"/>
    <trip id="408" depart="4534.54" from="536432068" to="754652102#4"/>
    <trip id="409" depart="4536.46" from="23149187#0" to="-E4"/>
    <trip id="410" depart="4539.38" from="-10852173#13" to="767870336"/>
    <trip id="411" depart="4539.46" from="23149187#0" to="535758968#2"/>
    <trip id="412" depart="4544.23" from="E11" to="-E2"/>
    <trip id="413" depart="4548.62" from="E0" to="18906766#4"/>
    <trip id="414" depart="4558.77" from="536432068" to="637316564#1"/>
    <trip id="415" depart="4568.62" from="E3" to="-E11"/>
    <trip id="416" depart="4574.69" from="E3" to="10852173#13"/>
    <trip id="417" depart="4574.85" from="637316557" to="-E11"/>
    <trip id="418" depart="4621.00" from="-754652102#4" to="-E2"/>
    <trip id="419" depart="4622.77" from="23149187#0" to="603623650#2"/>
    <trip id="420" depart="4625.00" from="23149187#0" to="639201238#2"/>
    <trip id="421" depart="4701.92" from="-603623650#2" to="10852173#13"/>
    <trip id="422" depart="4731.62" from="-18906766#4" to="754652102#4"/>
    <trip id="423" depart="4752.00" from="-603623650#2" to="535758968#2"/>
    <trip id="424" depart="4752.92" from="637316557" to="-18906825#0"/>
    <trip id="425" depart="4761.92" from="-18906766#4" to="-E4"/>
    <trip id="426" depart="4799.31" from="23149187#0" to="-E11"/>
    <trip id="427" depart="4812.46" from="23149187#0" to="637316564#1"/>
    <trip id="428" depart="4813.31" from="-603623650#2" to="535758968#2"/>
    <trip id="429" depart="4827.23" from="E3" to="-E4"/>
    <trip id="430" depart="4828.54" from="536432068" to="-18906825#0"/>
    <trip id="431" depart="4886.69" from="23149187#0" to="767870336"/>
    <trip id="432" depart="4898.08" from="-18906766#4" to="-18905873#0"/>
    <trip id="433" depart="4925.92" from="637316557" to="-E4"/>
    <trip id="434" depart="4930.77" from="-754652102#4" to="603623650#2"/>
    <trip id="436" depart="4998.00" from="-754652102#4" to="639201238#2"/>
    <trip id="437" depart="5001.38" from="18906825#0" to="18906766#4"/>