<?xml version="1.0" encoding="UTF-8"?>

<!-- generated on 2023-09-20 14:09:33.129461 by randomTrips.py v1_18_0+0000-03ecfdea036
<configuration>
    <net-file value="nets/cologne3/cologne3.net.xml"/>
    <output-trip-file value="nets/cologne3/cologne3_train.rou.xml"/>
    <lanes value="True"/>
    <fringe-factor value="max"/>
    <random value="True"/>
    <min-distance value="100.0"/>
    <validate value="True"/>
    <end value="86400.0"/>
    <insertion-rate value="120.0 240.0 360.0 480.0 600.0 720.0 840.0 960.0 1080.0 1200.0 1320.0 1440.0 1560.0 1680.0 1800.0 1920.0 2040.0 2160.0 2280.0 2400.0 2520.0 2640.0 2760.0 2880.0"/>
    <random-depart value="True"/>
    <duarouter-remove-loops value="true"/>
</configuration>
-->

<!-- generated on 2023-09-20 14:09:31 by Eclipse SUMO duarouter Version 1.18.0
<configuration xmlns:xsi="http://www.w3.org/2001/XMLSchema-instance" xsi:noNamespaceSchemaLocation="http://sumo.dlr.de/xsd/duarouterConfiguration.xsd">

    <input>
        <net-file value="nets/cologne3/cologne3.net.xml"/>
        <route-files value="nets/cologne3/cologne3_train.rou.xml"/>
    </input>

    <output>
        <output-file value="nets/cologne3/cologne3_train.rou.xml.tmp"/>
        <alternatives-output value="NUL"/>
        <write-trips value="true"/>
    </output>

    <processing>
        <remove-loops value="true"/>
    </processing>

    <time>
        <begin value="0"/>
        <end value="86400.0"/>
    </time>

    <report>
        <no-warnings value="true"/>
        <ignore-errors value="true"/>
        <no-step-log value="true"/>
    </report>

</configuration>
-->

<routes xmlns:xsi="http://www.w3.org/2001/XMLSchema-instance" xsi:noNamespaceSchemaLocation="http://sumo.dlr.de/xsd/routes_file.xsd">
    <trip id="0" depart="5.00" from="31864804" to="4145590#0"/>
    <trip id="1" depart="16.00" from="41910186" to="4145590#0"/>
    <trip id="2" depart="84.00" from="-241660955#17" to="31800061#0"/>
    <trip id="3" depart="150.00" from="-31800061#0" to="-4045329#5"/>
    <trip id="4" depart="153.00" from="-5229966#3" to="4999331#0"/>
    <trip id="5" depart="178.00" from="4999334" to="4145590#0"/>
    <trip id="6" depart="233.00" from="-5229966#3" to="4145590#0"/>
    <trip id="7" depart="273.00" from="-31800061#0" to="41910185#0"/>
    <trip id="8" depart="293.00" from="-5229966#3" to="4045332#0"/>
    <trip id="9" depart="302.00" from="-241660955#17" to="-41910184"/>
    <trip id="10" depart="305.00" from="4045329#5" to="-41910186"/>
    <trip id="11" depart="308.00" from="4045330" to="241660955#17"/>
    <trip id="12" depart="397.00" from="-31800061#0" to="130160207#0"/>
    <trip id="13" depart="413.00" from="31864804" to="4045332#0"/>
    <trip id="14" depart="444.00" from="4045329#5" to="4145590#0"/>
    <trip id="15" depart="445.00" from="31864804" to="241660955#17"/>
    <trip id="16" depart="457.00" from="-241660955#17" to="130160207#0"/>
    <trip id="17" depart="503.00" from="4999334" to="241660955#17"/>
    <trip id="18" depart="512.00" from="-241660955#17" to="4145590#0"/>
    <trip id="19" depart="525.00" from="-241660955#17" to="-4045330"/>
    <trip id="20" depart="526.00" from="-31800061#0" to="-31864804"/>
    <trip id="21" depart="537.00" from="-31800061#0" to="4145589#0"/>
    <trip id="22" depart="579.00" from="-130160207#0" to="41910185#0"/>
    <trip id="23" depart="613.00" from="-241660955#17" to="130160207#0"/>
    <trip id="24" depart="641.00" from="-241660955#17" to="4999331#0"/>
    <trip id="25" depart="740.00" from="-31800061#0" to="4145590#0"/>
    <trip id="26" depart="788.00" from="31864804" to="4145589#0"/>
    <trip id="27" depart="802.00" from="319261593#12" to="-31864804"/>
    <trip id="28" depart="890.00" from="241660957#0" to="4045332#0"/>
    <trip id="29" depart="907.00" from="-31800061#0" to="4145590#0"/>
    <trip id="30" depart="984.00" from="4999334" to="4145590#0"/>
    <trip id="31" depart="1012.00" from="41910184" to="41910185#0"/>
    <trip id="32" depart="1035.00" from="4999334" to="-4045329#5"/>
    <trip id="33" depart="1083.00" from="-130160207#0" to="4999331#0"/>
    <trip id="34" depart="1120.00" from="319261593#12" to="4145590#0"/>
    <trip id="35" depart="1142.00" from="-31800061#0" to="4145589#0"/>
    <trip id="36" depart="1142.00" from="4045330" to="130160207#0"/>
    <trip id="37" depart="1181.00" from="31864804" to="41910185#0"/>
    <trip id="38" depart="1193.00" from="-5229966#3" to="130160207#0"/>
    <trip id="39" depart="1244.00" from="41910186" to="241660955#17"/>
    <trip id="40" depart="1248.00" from="4999334" to="4145590#0"/>
    <trip id="41" depart="1272.00" from="319261593#12" to="-4999334"/>
    <trip id="42" depart="1291.00" from="-31800061#0" to="-4999334"/>
    <trip id="43" depart="1298.00" from="31864804" to="4145589#0"/>
    <trip id="44" depart="1309.00" from="-41910185#2" to="4999331#0"/>
    <trip id="45" depart="1315.00" from="4999334" to="4999331#0"/>
    <trip id="46" depart="1324.00" from="-31800061#0" to="4045332#0"/>
    <trip id="47" depart="1349.00" from="4999334" to="130160207#0"/>
    <trip id="48" depart="1355.00" from="4999334" to="-4045329#5"/>
    <trip id="49" depart="1384.00" from="241660957#0" to="-41910184"/>
    <trip id="50" depart="1388.00" from="4999334" to="31800061#0"/>
    <trip id="51" depart="1442.00" from="241660957#0" to="241660955#17"/>
    <trip id="52" depart="1472.00" from="-241660955#17" to="-4045329#5"/>
    <trip id="53" depart="1474.00" from="319261593#12" to="4145590#0"/>
    <trip id="54" depart="1504.00" from="4999334" to="130160207#0"/>
    <trip id="55" depart="1508.00" from="-241660955#17" to="41910185#0"/>
    <trip id="56" depart="1533.00" from="-5229966#3" to="-4045329#5"/>
    <trip id="57" depart="1568.00" from="319261593#12" to="-31864804"/>
    <trip id="58" depart="1612.00" from="241660957#0" to="41910185#0"/>
    <trip id="59" depart="1634.00" from="-41910185#2" to="-41910184"/>
    <trip id="60" depart="1652.00" from="-41910185#2" to="241660955#17"/>
    <trip id="61" depart="1693.00" from="-5229966#3" to="-31864804"/>
    <trip id="62" depart="1700.00" from="31864804" to="-4999334"/>
    <trip id="63" depart="1717.00" from="-241660955#17" to="4999331#0"/>
    <trip id="64" depart="1720.00" from="4045329#5" to="4145590#0"/>
    <trip id="65" depart="1777.00" from="-130160207#0" to="4145590#0"/>
    <trip id="66" depart="1792.00" from="319261593#12" to="-4045330"/>
    <trip id="67" depart="1806.00" from="319261593#12" to="241660955#17"/>
    <trip id="68" depart="1838.00" from="4999334" to="-41910184"/>
    <trip id="69" depart="1854.00" from="-241660955#17" to="-4045330"/>
    <trip id="70" depart="1871.00" from="31864804" to="4999331#0"/>
    <trip id="71" depart="2009.00" from="-41910185#2" to="4999331#0"/>
    <trip id="72" depart="2016.00" from="-241660955#17" to="4145590#0"/>
    <trip id="73" depart="2080.00" from="41910184" to="4999331#0"/>
    <trip id="74" depart="2117.00" from="241660957#0" to="241660955#17"/>
    <trip id="75" depart="2220.00" from="4045329#5" to="4145589#0"/>
    <trip id="76" depart="2265.00" from="241660957#0" to="130160207#0"/>
    <trip id="77" depart="2308.00" from="241660957#0" to="4999331#0"/>
    <trip id="78" depart="2337.00" from="319261593#12" to="4145589#0"/>
    <trip id="79" depart="2339.00" from="241660957#0" to="4999331#0"/>
    <trip id="80" depart="2347.00" from="4045330" to="241660955#17"/>
    <trip id="81" depart="2374.00" from="241660957#0" to="-41910186"/>
    <trip id="82" depart="2395.00" from="-31800061#0" to="-41910184"/>
    <trip id="83" depart="2451.00" from="-5229966#3" to="4145590#0"/>
    <trip id="84" depart="2469.00" from="-31800061#0" to="-31864804"/>
    <trip id="85" depart="2583.00" from="31864804" to="-41910186"/>
    <trip id="86" depart="2593.00" from="4045329#5" to="4145589#0"/>
    <trip id="87" depart="2598.00" from="-241660955#17" to="31800061#0"/>
    <trip id="88" depart="2600.00" from="319261593#12" to="-41910184"/>
    <trip id="89" depart="2623.00" from="-31800061#0" to="4145589#0"/>
    <trip id="90" depart="2655.00" from="41910186" to="4999331#0"/>
    <trip id="91" depart="2690.00" from="-241660955#17" to="130160207#0"/>
    <trip id="92" depart="2753.00" from="4045329#5" to="4145590#0"/>
    <trip id="93" depart="2774.00" from="4045330" to="-41910186"/>
    <trip id="94" depart="2855.00" from="-31800061#0" to="4145589#0"/>
    <trip id="95" depart="2873.00" from="-241660955#17" to="4999331#0"/>
    <trip id="96" depart="2904.00" from="-5229966#3" to="4145590#0"/>
    <trip id="97" depart="3025.00" from="-31800061#0" to="4999331#0"/>
    <trip id="98" depart="3026.00" from="241660957#0" to="31800061#0"/>
    <trip id="99" depart="3044.00" from="4045329#5" to="4145589#0"/>
    <trip id="100" depart="3094.00" from="241660957#0" to="-4045330"/>
    <trip id="101" depart="3111.00" from="241660957#0" to="-31864804"/>
    <trip id="102" depart="3203.00" from="31864804" to="-4045330"/>
    <trip id="103" depart="3212.00" from="4045330" to="-4999334"/>
    <trip id="104" depart="3239.00" from="319261593#12" to="-4045330"/>
    <trip id="105" depart="3243.00" from="4999334" to="31800061#0"/>
    <trip id="106" depart="3248.00" from="-31800061#0" to="-4045329#5"/>
    <trip id="107" depart="3262.00" from="4999334" to="241660955#17"/>
    <trip id="108" depart="3268.00" from="-41910185#2" to="241660955#17"/>
    <trip id="109" depart="3281.00" from="-130160207#0" to="-41910184"/>
    <trip id="110" depart="3288.00" from="-130160207#0" to="4145590#0"/>
    <trip id="111" depart="3364.00" from="-130160207#0" to="41910185#0"/>
    <trip id="112" depart="3391.00" from="319261593#12" to="-31864804"/>
    <trip id="113" depart="3408.00" from="31864804" to="4145589#0"/>
    <trip id="114" depart="3414.00" from="4045330" to="-41910186"/>
    <trip id="115" depart="3416.00" from="241660957#0" to="130160207#0"/>
    <trip id="116" depart="3577.00" from="4045330" to="-31864804"/>
    <trip id="117" depart="3593.00" from="4045329#5" to="4145589#0"/>
    <trip id="118" depart="3596.00" from="41910186" to="130160207#0"/>
    <trip id="119" depart="3598.00" from="-41910185#2" to="-41910184"/>
    <trip id="120" depart="3622.00" from="31864804" to="4145589#0"/>
    <trip id="121" depart="3636.00" from="41910184" to="4045332#0"/>
    <trip id="122" depart="3640.00" from="31864804" to="-4999334"/>
    <trip id="123" depart="3660.00" from="-241660955#17" to="-4045330"/>
    <trip id="124" depart="3702.00" from="-31800061#0" to="4045332#0"/>
    <trip id="125" depart="3731.00" from="-241660955#17" to="4145589#0"/>
    <trip id="126" depart="3740.00" from="241660957#0" to="41910185#0"/>
    <trip id="127" depart="3744.00" from="241660957#0" to="41910185#0"/>
    <trip id="128" depart="3751.00" from="-241660955#17" to="-41910184"/>
    <trip id="129" depart="3766.00" from="319261593#12" to="-4999334"/>
    <trip id="130" depart="3783.00" from="319261593#12" to="241660955#17"/>
    <trip id="131" depart="3850.00" from="-241660955#17" to="-4045330"/>
    <trip id="132" depart="3894.00" from="41910184" to="41910185#0"/>
    <trip id="133" depart="3899.00" from="-31800061#0" to="130160207#0"/>
    <trip id="134" depart="3909.00" from="31864804" to="-41910186"/>
    <trip id="135" depart="3932.00" from="4045329#5" to="4045332#0"/>
    <trip id="136" depart="3940.00" from="-130160207#0" to="4999331#0"/>
    <trip id="137" depart="3960.00" from="-130160207#0" to="31800061#0"/>
    <trip id="138" depart="3982.00" from="241660957#0" to="-4999334"/>
    <trip id="139" depart="4000.00" from="4999334" to="4999331#0"/>
    <trip id="140" depart="4007.00" from="-241660955#17" to="-41910186"/>
    <trip id="141" depart="4023.00" from="-241660955#17" to="4045332#0"/>
    <trip id="142" depart="4027.00" from="-130160207#0" to="4145590#0"/>
    <trip id="143" depart="4032.00" from="319261593#12" to="-4999334"/>
    <trip id="144" depart="4036.00" from="-31800061#0" to="-4045330"/>
    <trip id="145" depart="4047.00" from="241660957#0" to="41910185#0"/>
    <trip id="146" depart="4049.00" from="41910186" to="241660955#17"/>
    <trip id="147" depart="4071.00" from="31864804" to="-4045329#5"/>
    <trip id="148" depart="4077.00" from="-241660955#17" to="31800061#0"/>
    <trip id="149" depart="4110.00" from="241660957#0" to="-31864804"/>
    <trip id="150" depart="4135.00" from="41910186" to="-31864804"/>
    <trip id="151" depart="4146.00" from="-5229966#3" to="241660955#17"/>
    <trip id="152" depart="4161.00" from="319261593#12" to="4999331#0"/>
    <trip id="153" depart="4174.00" from="-31800061#0" to="241660955#17"/>
    <trip id="154" depart="4176.00" from="4999334" to="41910185#0"/>
    <trip id="155" depart="4190.00" from="-241660955#17" to="-41910186"/>
    <trip id="156" depart="4200.00" from="241660957#0" to="4999331#0"/>
    <trip id="157" depart="4237.00" from="4045330" to="-4999334"/>
    <trip id="158" depart="4245.00" from="-241660955#17" to="-4045330"/>
    <trip id="159" depart="4246.00" from="319261593#12" to="31800061#0"/>
    <trip id="160" depart="4257.00" from="-41910185#2" to="4145589#0"/>
    <trip id="161" depart="4258.00" from="41910186" to="-31864804"/>
    <trip id="162" depart="4283.00" from="-41910185#2" to="-31864804"/>
    <trip id="163" depart="4310.00" from="241660957#0" to="4145589#0"/>
    <trip id="164" depart="4319.00" from="241660957#0" to="4045332#0"/>
    <trip id="165" depart="4330.00" from="-5229966#3" to="-4999334"/>
    <trip id="166" depart="4330.00" from="31864804" to="-41910186"/>
    <trip id="167" depart="4331.00" from="319261593#12" to="-31864804"/>
    <trip id="168" depart="4335.00" from="-130160207#0" to="-41910184"/>
    <trip id="169" depart="4349.00" from="41910184" to="4145590#0"/>
    <trip id="170" depart="4357.00" from="319261593#12" to="4999331#0"/>
    <trip id="171" depart="4374.00" from="241660957#0" to="-4045330"/>
    <trip id="172" depart="4382.00" from="-241660955#17" to="31800061#0"/>
    <trip id="173" depart="4395.00" from="31864804" to="41910185#0"/>
    <trip id="174" depart="4403.00" from="-5229966#3" to="41910185#0"/>
    <trip id="175" depart="4407.00" from="241660957#0" to="-31864804"/>
    <trip id="176" depart="4421.00" from="4045329#5" to="241660955#17"/>
    <trip id="177" depart="4446.00" from="41910184" to="41910185#0"/>
    <trip id="178" depart="4455.00" from="-130160207#0" to="-31864804"/>
    <trip id="179" depart="4460.00" from="4999334" to="4999331#0"/>
    <trip id="180" depart="4475.00" from="-31800061#0" to="-4045329#5"/>
    <trip id="181" depart="4477.00" from="41910184" to="241660955#17"/>
    <trip id="182" depart="4481.00" from="319261593#12" to="41910185#0"/>
    <trip id="183" depart="4482.00" from="-130160207#0" to="241660955#17"/>
    <trip id="184" depart="4490.00" from="4045330" to="-31864804"/>
    <trip id="185" depart="4513.00" from="241660957#0" to="4999331#0"/>
    <trip id="186" depart="4514.00" from="-5229966#3" to="-4045330"/>
    <trip id="187" depart="4545.00" from="4045329#5" to="-4045330"/>
    <trip id="188" depart="4549.00" from="4999334" to="241660955#17"/>
    <trip id="189" depart="4571.00" from="-130160207#0" to="4145590#0"/>
    <trip id="190" depart="4583.00" from="4999334" to="4999331#0"/>
    <trip id="191" depart="4590.00" from="31864804" to="-4999334"/>
    <trip id="192" depart="4592.00" from="-130160207#0" to="-4999334"/>
    <trip id="193" depart="4596.00" from="-41910185#2" to="4999331#0"/>
    <trip id="194" depart="4597.00" from="41910184" to="-41910186"/>
    <trip id="195" depart="4611.00" from="319261593#12" to="-31864804"/>
    <trip id="196" depart="4665.00" from="41910184" to="4999331#0"/>
    <trip id="197" depart="4672.00" from="4999334" to="4045332#0"/>
    <trip id="198" depart="4685.00" from="-241660955#17" to="-4045329#5"/>
    <trip id="199" depart="4711.00" from="-31800061#0" to="-41910184"/>
    <trip id="200" depart="4725.00" from="4045330" to="241660955#17"/>
    <trip id="201" depart="4755.00" from="-31800061#0" to="-31864804"/>
    <trip id="202" depart="4756.00" from="-241660955#17" to="4145590#0"/>
    <trip id="203" depart="4785.00" from="-130160207#0" to="-4045329#5"/>
    <trip id="204" depart="4826.00" from="319261593#12" to="241660955#17"/>
    <trip id="205" depart="4845.00" from="-130160207#0" to="-4999334"/>
    <trip id="206" depart="4893.00" from="319261593#12" to="-31864804"/>
    <trip id="207" depart="4909.00" from="4045330" to="-31864804"/>
    <trip id="208" depart="4910.00" from="-41910185#2" to="-4999334"/>
    <trip id="209" depart="4916.00" from="241660957#0" to="-4999334"/>
    <trip id="210" depart="4916.00" from="319261593#12" to="-4999334"/>
    <trip id="211" depart="4951.00" from="-31800061#0" to="-31864804"/>
    <trip id="212" depart="4971.00" from="-241660955#17" to="4045332#0"/>
    <trip id="213" depart="4981.00" from="-31800061#0" to="241660955#17"/>
    <trip id="214" depart="4990.00" from="241660957#0" to="4145589#0"/>
    <trip id="215" depart="4992.00" from="31864804" to="-4045329#5"/>
    <trip id="216" depart="5014.00" from="31864804" to="41910185#0"/>
    <trip id="217" depart="5036.00" from="31864804" to="-4999334"/>
    <trip id="218" depart="5081.00" from="-5229966#3" to="4145590#0"/>
    <trip id="219" depart="5094.00" from="241660957#0" to="4145589#0"/>
    <trip id="220" depart="5111.00" from="241660957#0" to="4145589#0"/>
    <trip id="221" depart="5125.00" from="319261593#12" to="4145590#0"/>
    <trip id="222" depart="5125.00" from="-5229966#3" to="-41910186"/>
    <trip id="223" depart="5147.00" from="241660957#0" to="-4045330"/>
    <trip id="224" depart="5161.00" from="241660957#0" to="-4999334"/>
    <trip id="225" depart="5161.00" from="-5229966#3" to="-4999334"/>
    <trip id="226" depart="5164.00" from="-5229966#3" to="-41910184"/>
    <trip id="227" depart="5213.00" from="4045329#5" to="31800061#0"/>
    <trip id="228" depart="5226.00" from="-241660955#17" to="41910185#0"/>
    <trip id="229" depart="5250.00" from="241660957#0" to="4999331#0"/>
    <trip id="230" depart="5264.00" from="241660957#0" to="-31864804"/>
    <trip id="231" depart="5270.00" from="319261593#12" to="241660955#17"/>
    <trip id="232" depart="5311.00" from="41910186" to="241660955#17"/>
    <trip id="233" depart="5311.00" from="4045329#5" to="-31864804"/>
    <trip id="234" depart="5333.00" from="-241660955#17" to="-4999334"/>
    <trip id="235" depart="5350.00" from="241660957#0" to="31800061#0"/>
    <trip id="236" depart="5380.00" from="241660957#0" to="-41910186"/>
    <trip id="237" depart="5389.00" from="31864804" to="31800061#0"/>
    <trip id="238" depart="5399.00" from="319261593#12" to="31800061#0"/>
    <trip id="239" depart="5400.00" from="31864804" to="-4045330"/>
    <trip id="240" depart="5404.00" from="-31800061#0" to="-31864804"/>
    <trip id="241" depart="5419.00" from="241660957#0" to="4045332#0"/>
    <trip id="242" depart="5419.00" from="31864804" to="241660955#17"/>
    <trip id="243" depart="5423.00" from="319261593#12" to="31800061#0"/>
    <trip id="244" depart="5448.00" from="-130160207#0" to="4145590#0"/>
    <trip id="245" depart="5459.00" from="319261593#12" to="130160207#0"/>
    <trip id="246" depart="5461.00" from="319261593#12" to="4145589#0"/>
    <trip id="247" depart="5492.00" from="-31800061#0" to="-41910186"/>
    <trip id="248" depart="5494.00" from="41910184" to="4045332#0"/>
    <trip id="249" depart="5553.00" from="-241660955#17" to="4999331#0"/>
    <trip id="250" depart="5553.00" from="41910184" to="-31864804"/>
    <trip id="251" depart="5565.00" from="241660957#0" to="-4045329#5"/>
    <trip id="252" depart="5570.00" from="41910186" to="241660955#17"/>
    <trip id="253" depart="5580.00" from="-31800061#0" to="4145590#0"/>
    <trip id="254" depart="5590.00" from="41910184" to="241660955#17"/>
    <trip id="255" depart="5599.00" from="-241660955#17" to="4999331#0"/>
    <trip id="256" depart="5612.00" from="4999334" to="4045332#0"/>
    <trip id="257" depart="5615.00" from="41910184" to="4145590#0"/>
    <trip id="258" depart="5617.00" from="41910184" to="-31864804"/>
    <trip id="259" depart="5622.00" from="-41910185#2" to="-41910184"/>
    <trip id="260" depart="5647.00" from="-41910185#2" to="4999331#0"/>
    <trip id="261" depart="5651.00" from="-241660955#17" to="4145590#0"/>
    <trip id="262" depart="5655.00" from="319261593#12" to="4145589#0"/>
    <trip id="263" depart="5668.00" from="-31800061#0" to="-41910184"/>
    <trip id="264" depart="5748.00" from="4045330" to="4999331#0"/>
    <trip id="265" depart="5782.00" from="-241660955#17" to="4145589#0"/>
    <trip id="266" depart="5783.00" from="319261593#12" to="130160207#0"/>
    <trip id="267" depart="5809.00" from="31864804" to="130160207#0"/>
    <trip id="268" depart="5810.00" from="41910184" to="130160207#0"/>
    <trip id="269" depart="5819.00" from="4045330" to="241660955#17"/>
    <trip id="270" depart="5825.00" from="-241660955#17" to="-4045329#5"/>
    <trip id="271" depart="5827.00" from="41910184" to="4145590#0"/>
    <trip id="272" depart="5836.00" from="4999334" to="-31864804"/>
    <trip id="273" depart="5838.00" from="319261593#12" to="-4045330"/>
    <trip id="274" depart="5855.00" from="319261593#12" to="4999331#0"/>
    <trip id="275" depart="5862.00" from="319261593#12" to="4999331#0"/>
    <trip id="276" depart="5888.00" from="31864804" to="4145589#0"/>
    <trip id="277" depart="5902.00" from="41910186" to="241660955#17"/>
    <trip id="278" depart="5911.00" from="241660957#0" to="241660955#17"/>
    <trip id="279" depart="5927.00" from="4045330" to="130160207#0"/>
    <trip id="280" depart="5932.00" from="31864804" to="241660955#17"/>
    <trip id="281" depart="5934.00" from="-241660955#17" to="-31864804"/>
    <trip id="282" depart="5937.00" from="31864804" to="4145590#0"/>
    <trip id="283" depart="5939.00" from="-31800061#0" to="-41910186"/>
    <trip id="284" depart="5943.00" from="-5229966#3" to="-4045329#5"/>
    <trip id="285" depart="5951.00" from="-241660955#17" to="-4045330"/>
    <trip id="286" depart="5951.00" from="319261593#12" to="241660955#17"/>
    <trip id="287" depart="5960.00" from="31864804" to="241660955#17"/>
    <trip id="288" depart="5973.00" from="41910184" to="4045332#0"/>
    <trip id="289" depart="6026.00" from="4045329#5" to="-4999334"/>
    <trip id="290" depart="6034.00" from="-41910185#2" to="-4999334"/>
    <trip id="291" depart="6040.00" from="-5229966#3" to="-4045330"/>
    <trip id="292" depart="6067.00" from="41910184" to="-41910186"/>
    <trip id="293" depart="6069.00" from="31864804" to="4145590#0"/>
    <trip id="294" depart="6070.00" from="319261593#12" to="4999331#0"/>
    <trip id="295" depart="6075.00" from="31864804" to="4145590#0"/>
    <trip id="296" depart="6097.00" from="31864804" to="241660955#17"/>
    <trip id="297" depart="6104.00" from="41910184" to="-4045330"/>
    <trip id="298" depart="6123.00" from="31864804" to="4145589#0"/>
    <trip id="299" depart="6124.00" from="319261593#12" to="4999331#0"/>
    <trip id="300" depart="6140.00" from="31864804" to="241660955#17"/>
    <trip id="301" depart="6147.00" from="-41910185#2" to="130160207#0"/>
    <trip id="302" depart="6148.00" from="319261593#12" to="-41910184"/>
    <trip id="303" depart="6154.00" from="-5229966#3" to="4999331#0"/>
    <trip id="304" depart="6170.00" from="-41910185#2" to="4999331#0"/>
    <trip id="305" depart="6188.00" from="31864804" to="4145590#0"/>
    <trip id="306" depart="6193.00" from="41910184" to="-4045330"/>
    <trip id="307" depart="6208.00" from="-31800061#0" to="-4999334"/>
    <trip id="308" depart="6208.00" from="31864804" to="130160207#0"/>
    <trip id="309" depart="6270.00" from="41910186" to="4999331#0"/>
    <trip id="310" depart="6273.00" from="319261593#12" to="-41910186"/>
    <trip id="311" depart="6290.00" from="-5229966#3" to="4145589#0"/>
    <trip id="312" depart="6290.00" from="-31800061#0" to="-41910186"/>
    <trip id="313" depart="6296.00" from="4045330" to="130160207#0"/>
    <trip id="314" depart="6297.00" from="-5229966#3" to="4045332#0"/>
    <trip id="315" depart="6302.00" from="-5229966#3" to="-31864804"/>
    <trip id="316" depart="6305.00" from="4999334" to="41910185#0"/>
    <trip id="317" depart="6321.00" from="4045330" to="241660955#17"/>
    <trip id="318" depart="6337.00" from="319261593#12" to="41910185#0"/>
    <trip id="319" depart="6342.00" from="-241660955#17" to="4999331#0"/>
    <trip id="320" depart="6364.00" from="241660957#0" to="241660955#17"/>
    <trip id="321" depart="6370.00" from="319261593#12" to="-4045330"/>
    <trip id="322" depart="6389.00" from="241660957#0" to="241660955#17"/>
    <trip id="323" depart="6428.00" from="31864804" to="241660955#17"/>
    <trip id="324" depart="6448.00" from="-130160207#0" to="4145590#0"/>
    <trip id="325" depart="6456.00" from="31864804" to="4145590#0"/>
    <trip id="326" depart="6499.00" from="-31800061#0" to="241660955#17"/>
    <trip id="327" depart="6503.00" from="31864804" to="-4999334"/>
    <trip id="328" depart="6506.00" from="-241660955#17" to="4999331#0"/>
    <trip id="329" depart="6532.00" from="319261593#12" to="-4999334"/>
    <trip id="330" depart="6533.00" from="31864804" to="-41910186"/>
    <trip id="331" depart="6533.00" from="4999334" to="41910185#0"/>
    <trip id="332" depart="6580.00" from="31864804" to="-4999334"/>
    <trip id="333" depart="6602.00" from="-5229966#3" to="-41910184"/>
    <trip id="334" depart="6617.00" from="-241660955#17" to="4999331#0"/>
    <trip id="335" depart="6621.00" from="-5229966#3" to="-41910186"/>
    <trip id="336" depart="6631.00" from="241660957#0" to="241660955#17"/>
    <trip id="337" depart="6638.00" from="-241660955#17" to="4999331#0"/>
    <trip id="338" depart="6645.00" from="4045329#5" to="241660955#17"/>
    <trip id="339" depart="6710.00" from="241660957#0" to="-41910186"/>
    <trip id="340" depart="6727.00" from="-31800061#0" to="-31864804"/>
    <trip id="341" depart="6764.00" from="-130160207#0" to="241660955#17"/>
    <trip id="342" depart="6781.00" from="-130160207#0" to="241660955#17"/>
    <trip id="343" depart="6801.00" from="-130160207#0" to="4145589#0"/>
    <trip id="344" depart="6814.00" from="-130160207#0" to="-4999334"/>
    <trip id="345" depart="6824.00" from="319261593#12" to="31800061#0"/>
    <trip id="346" depart="6893.00" from="4045330" to="-4045329#5"/>
    <trip id="347" depart="6924.00" from="-41910185#2" to="241660955#17"/>
    <trip id="348" depart="6935.00" from="4999334" to="4999331#0"/>
    <trip id="349" depart="6978.00" from="319261593#12" to="4999331#0"/>
    <trip id="350" depart="7007.00" from="-41910185#2" to="4999331#0"/>
    <trip id="351" depart="7045.00" from="-41910185#2" to="4145590#0"/>
    <trip id="352" depart="7069.00" from="-5229966#3" to="41910185#0"/>
    <trip id="353" depart="7086.00" from="-241660955#17" to="4999331#0"/>
    <trip id="354" depart="7135.00" from="41910184" to="-41910186"/>
    <trip id="355" depart="7145.00" from="31864804" to="241660955#17"/>
    <trip id="356" depart="7149.00" from="319261593#12" to="4145590#0"/>
    <trip id="357" depart="7152.00" from="31864804" to="130160207#0"/>
    <trip id="358" depart="7162.00" from="-41910185#2" to="-4045329#5"/>
    <trip id="359" depart="7188.00" from="41910184" to="241660955#17"/>
    <trip id="360" depart="7221.00" from="-5229966#3" to="4145590#0"/>
    <trip id="361" depart="7233.00" from="241660957#0" to="-41910184"/>
    <trip id="362" depart="7235.00" from="4999334" to="4145590#0"/>
    <trip id="363" depart="7241.00" from="31864804" to="241660955#17"/>
    <trip id="364" depart="7242.00" from="-130160207#0" to="-31864804"/>
    <trip id="365" depart="7254.00" from="-241660955#17" to="-4999334"/>
    <trip id="366" depart="7281.00" from="319261593#12" to="-31864804"/>
    <trip id="367" depart="7291.00" from="4045329#5" to="130160207#0"/>
    <trip id="368" depart="7303.00" from="-241660955#17" to="41910185#0"/>
    <trip id="369" depart="7316.00" from="4999334" to="241660955#17"/>
    <trip id="370" depart="7319.00" from="-241660955#17" to="4999331#0"/>
    <trip id="371" depart="7321.00" from="31864804" to="4045332#0"/>
    <trip id="372" depart="7327.00" from="-41910185#2" to="241660955#17"/>
    <trip id="373" depart="7342.00" from="-31800061#0" to="4145590#0"/>
    <trip id="374" depart="7347.00" from="-5229966#3" to="4145590#0"/>
    <trip id="375" depart="7356.00" from="-241660955#17" to="-31864804"/>
    <trip id="376" depart="7391.00" from="-5229966#3" to="4145590#0"/>
    <trip id="377" depart="7392.00" from="4045330" to="241660955#17"/>
    <trip id="378" depart="7401.00" from="4999334" to="4045332#0"/>
    <trip id="379" depart="7424.00" from="41910184" to="4999331#0"/>
    <trip id="380" depart="7425.00" from="-41910185#2" to="241660955#17"/>
    <trip id="381" depart="7451.00" from="4999334" to="241660955#17"/>
    <trip id="382" depart="7455.00" from="4045330" to="-4045329#5"/>
    <trip id="383" depart="7463.00" from="4045329#5" to="4045332#0"/>
    <trip id="384" depart="7484.00" from="-31800061#0" to="241660955#17"/>
    <trip id="385" depart="7487.00" from="41910184" to="4999331#0"/>
    <trip id="386" depart="7507.00" from="-5229966#3" to="241660955#17"/>
    <trip id="387" depart="7532.00" from="241660957#0" to="4145589#0"/>
    <trip id="388" depart="7542.00" from="4045329#5" to="-31864804"/>
    <trip id="389" depart="7565.00" from="4045330" to="130160207#0"/>
    <trip id="390" depart="7566.00" from="241660957#0" to="241660955#17"/>
    <trip id="391" depart="7570.00" from="31864804" to="130160207#0"/>
    <trip id="392" depart="7572.00" from="241660957#0" to="241660955#17"/>
    <trip id="393" depart="7575.00" from="241660957#0" to="-4999334"/>
    <trip id="394" depart="7590.00" from="241660957#0" to="-31864804"/>
    <trip id="395" depart="7591.00" from="41910184" to="41910185#0"/>