<additional xmlns:xsi="http://www.w3.org/2001/XMLSchema-instance" xsi:noNamespaceSchemaLocation="http://sumo.dlr.de/xsd/additional_file.xsd">
    <laneAreaDetector file="e2output.xml" freq="60" friendlyPos="x" id="e2det_-130160207#0_0" lane="-130160207#0_0" length="35" pos="100.08000000000001"/>
    <laneAreaDetector file="e2output.xml" freq="60" friendlyPos="x" id="e2det_-241660955#17_0" lane="-241660955#17_0" length="35" pos="75.03"/>
    <laneAreaDetector file="e2output.xml" freq="60" friendlyPos="x" id="e2det_-241660955#17_1" lane="-241660955#17_1" length="35" pos="75.03"/>
    <laneAreaDetector file="e2output.xml" freq="60" friendlyPos="x" id="e2det_241660955#14_0" lane="241660955#14_0" length="35" pos="70.38000000000001"/>
    <laneAreaDetector file="e2output.xml" freq="60" friendlyPos="x" id="e2det_241660955#14_1" lane="241660955#14_1" length="35" pos="70.38000000000001"/>
    <laneAreaDetector file="e2output.xml" freq="60" friendlyPos="x" id="e2det_-241660955#10_0" lane="-241660955#10_0" length="35" pos="21.47"/>
    <laneAreaDetector file="e2output.xml" freq="60" friendlyPos="x" id="e2det_-241660955#10_1" lane="-241660955#10_1" length="35" pos="21.47"/>
    <laneAreaDetector file="e2output.xml" freq="60" friendlyPos="x" id="e2det_-41910185#2_0" lane="-41910185#2_0" length="35" pos="92.53"/>
    <laneAreaDetector file="e2output.xml" freq="60" friendlyPos="x" id="e2det_241660955#7_0" lane="241660955#7_0" length="35" pos="48.02"/>
    <laneAreaDetector file="e2output.xml" freq="60" friendlyPos="x" id="e2det_241660955#7_1" lane="241660955#7_1" length="35" pos="48.02"/>
    <laneAreaDetector file="e2output.xml" freq="60" friendlyPos="x" id="e2det_4045329#5_0" lane="4045329#5_0" length="35" pos="86.43"/>
    <laneAreaDetector file="e2output.xml" freq="60" friendlyPos="x" id="e2det_-241660955#3_0" lane="-241660955#3_0" length="35" pos="70.63000000000001"/>
    <laneAreaDetector file="e2output.xml" freq="60" friendlyPos="x" id="e2det_-241660955#3_1" lane="-241660955#3_1" length="35" pos="70.63000000000001"/>
    <laneAreaDetector file="e2output.xml" freq="60" friendlyPos="x" id="e2det_200818108#0_0" lane="200818108#0_0" length="9.620000000000001" pos="0"/>
    <laneAreaDetector file="e2output.xml" freq="60" friendlyPos="x" id="e2det_200818108#0_1" lane="200818108#0_1" length="9.620000000000001" pos="0"/>
    <laneAreaDetector file="e2output.xml" freq="60" friendlyPos="x" id="e2det_241660957#0_0" lane="241660957#0_0" length="35" pos="62.63999999999999"/>
    <laneAreaDetector file="e2output.xml" freq="60" friendlyPos="x" id="e2det_241660957#0_1" lane="241660957#0_1" length="35" pos="62.63999999999999"/>
    <laneAreaDetector file="e2output.xml" freq="60" friendlyPos="x" id="e2det_319261593#16_0" lane="319261593#16_0" length="12.540000000000001" pos="0"/>
    <laneAreaDetector file="e2output.xml" freq="60" friendlyPos="x" id="e2det_319261593#16_1" lane="319261593#16_1" length="12.540000000000001" pos="0"/>
</additional>
