<?xml version="1.0" encoding="UTF-8"?>
<!-- generated on 2021-05-27 23:52:05.804645 by cutRoutes.py v1_9_1+0000-7ec6471b6c
  options: .\cologne3.net.xml .\cologne_routes.xml -o cologne3.rou.xml <doubleminus>orig-net .\cologne.net.xml <doubleminus>big
-->
<routes xmlns:xsi="http://www.w3.org/2001/XMLSchema-instance" xsi:noNamespaceSchemaLocation="http://sumo.dlr.de/xsd/routes_file.xsd">
	<vType id="pkw" vClass="passenger" speedDev="0.1" length="4.3" minGap="1.5"/>
    <vehicle arrival="1791.0" depart="12.0" id="64428_378_0" type="pkw">
        <route edges="-5229966#3 319261593#15 319261593#16 4145590#0"/>
    </vehicle>
    <vehicle arrival="1386.0" depart="17.0" id="57162_374_0" type="pkw">
        <route edges="-5229966#3 319261593#15 319261593#16 4145590#0"/>
    </vehicle>
    <vehicle arrival="440.0" depart="20.0" id="93522_392_0" type="pkw">
        <route edges="-241660955#17 -241660955#16 -241660955#13 -241660955#12 -241660955#10 -241660955#9 -241660955#6 -241660955#5 -241660955#3 -200818108#1 -31864804"/>
    </vehicle>
    <vehicle arrival="657.0" depart="20.0" id="99565_396_0" type="pkw">
        <route edges="241660957#0 4999331#0"/>
    </vehicle>
    <vehicle arrival="724.0" depart="22.0" id="73115_384_0" type="pkw">
        <route edges="41910184 241660955#13 241660955#14 241660955#17"/>
    </vehicle>
    <vehicle arrival="1007.0" depart="23.0" id="90815_391_0" type="pkw">
        <route edges="241660955#6 -241660955#6 -4999334"/>
    </vehicle>
    <vehicle arrival="1792.0" depart="23.0" id="89835_391_0" type="pkw">
        <route edges="-241660955#17 -241660955#16 -241660955#13 -41910184"/>
    </vehicle>
    <vehicle arrival="792.0" depart="25.0" id="83314_390_0" type="pkw">
        <route edges="319261593#12 319261593#15 8197886#0 200818108#0 4145590#0"/>
    </vehicle>
    <vehicle arrival="94.0" depart="26.0" id="59960_376_0" type="pkw">
        <route edges="-241660955#17 -241660955#16 4145589#0"/>
    </vehicle>
    <vehicle arrival="209.0" depart="26.0" id="84472_390_0" type="pkw">
        <route edges="241660957#0 4999331#0"/>
    </vehicle>
    <vehicle arrival="266.0" depart="26.0" id="59979_376_0" type="pkw">
        <route edges="319261593#12 319261593#15 8197886#0 -31864804"/>
    </vehicle>
    <vehicle arrival="190.0" depart="27.0" id="66700_380_0" type="pkw">
        <route edges="41910184 241660955#13 241660955#14 130160207#0"/>
    </vehicle>
    <vehicle arrival="1934.0" depart="28.0" id="102115_396_0" type="pkw">
        <route edges="-241660955#17 -241660955#16 -241660955#13 -41910184"/>
    </vehicle>
    <vehicle arrival="691.0" depart="31.0" id="87950_391_0" type="pkw">
        <route edges="31864804 200818108#0 4145590#0"/>
    </vehicle>
    <vehicle arrival="882.0" depart="32.0" id="100153_396_0" type="pkw">
        <route edges="41910184 241660955#13 4145589#0"/>
    </vehicle>
    <vehicle arrival="131.0" depart="36.0" id="81482_389_0" type="pkw">
        <route edges="31864804 200818108#0 241660955#0 241660955#4 241660955#6 241660955#7 241660955#10 -4045330"/>
    </vehicle>
    <vehicle arrival="215.0" depart="36.0" id="71137_382_0" type="pkw">
        <route edges="241660957#0 4999331#0"/>
    </vehicle>
    <vehicle arrival="405.0" depart="36.0" id="79021_387_0" type="pkw">
        <route edges="41910186 -241660955#3 4145590#0"/>
    </vehicle>
    <vehicle arrival="194.0" depart="37.0" id="73894_385_0" type="pkw">
        <route edges="-241660955#17 -241660955#16 -241660955#13 -41910184"/>
    </vehicle>
    <vehicle arrival="153.0" depart="38.0" id="73170_384_0" type="pkw">
        <route edges="241660957#0 4999331#0"/>
    </vehicle>
    <vehicle arrival="532.0" depart="39.0" id="87995_391_0" type="pkw">
        <route edges="41910184 241660955#13 241660955#14 241660955#17"/>
    </vehicle>
    <vehicle arrival="105.0" depart="40.0" id="81168_389_0" type="pkw">
        <route edges="-41910185#2 241660955#10 241660955#11 -41910184"/>
    </vehicle>
    <vehicle arrival="8005.0" depart="40.0" id="54426_371_0" type="pkw">
        <route edges="319261593#12 319261593#15 319261593#16 4145590#0"/>
    </vehicle>
    <vehicle arrival="175.0" depart="42.0" id="49531_367_0" type="pkw">
        <route edges="319261593#12 319261593#15 319261593#16 4145590#0"/>
    </vehicle>
    <vehicle arrival="921.0" depart="42.0" id="77650_386_0" type="pkw">
        <route edges="241660957#0 4999331#0"/>
    </vehicle>
    <vehicle arrival="582.0" depart="53.0" id="80144_388_0" type="pkw">
        <route edges="-41910185#2 -241660955#9 -241660955#6 -241660955#5 -241660955#3 -200818108#1 -31864804"/>
    </vehicle>
    <vehicle arrival="830.0" depart="55.0" id="88840_391_0" type="pkw">
        <route edges="31864804 200818108#0 241660955#0 241660955#4 241660955#6 241660955#7 241660955#10 241660955#11 241660955#13 241660955#14 241660955#17"/>
    </vehicle>
    <vehicle arrival="846.0" depart="55.0" id="93238_392_0" type="pkw">
        <route edges="-241660955#17 -241660955#16 -241660955#13 -41910184"/>
    </vehicle>
    <vehicle arrival="1275.0" depart="55.0" id="87338_391_0" type="pkw">
        <route edges="41910186 -241660955#3 4145590#0"/>
    </vehicle>
    <vehicle arrival="482.0" depart="58.0" id="65566_379_0" type="pkw">
        <route edges="-241660955#17 -241660955#16 -241660955#13 -241660955#12 -241660955#10 -241660955#9 -241660955#6 -241660955#5 -241660955#3 -200818108#1 -31864804"/>
    </vehicle>
    <vehicle arrival="423.0" depart="59.0" id="83680_390_0" type="pkw">
        <route edges="31864804 200818108#0 241660955#0 241660955#4 241660955#6 241660955#7 241660955#10 241660955#11 241660955#13 241660955#14 241660955#17"/>
    </vehicle>
    <vehicle arrival="219.0" depart="60.0" id="78641_387_0" type="pkw">
        <route edges="241660955#4 241660955#6 4045332#0"/>
    </vehicle>
    <vehicle arrival="3255.0" depart="60.0" id="59495_375_0" type="pkw">
        <route edges="-5229966#3 319261593#15 319261593#16 241660955#0 241660955#4 -4999334"/>
    </vehicle>
    <vehicle arrival="722.0" depart="61.0" id="82510_389_0" type="pkw">
        <route edges="-241660955#17 -241660955#16 -241660955#13 -41910184"/>
    </vehicle>
    <vehicle arrival="1090.0" depart="66.0" id="95411_394_0" type="pkw">
        <route edges="4045330 241660955#11 241660955#13 241660955#14 241660955#17"/>
    </vehicle>
    <vehicle arrival="1172.0" depart="69.0" id="96311_394_0" type="pkw">
        <route edges="241660955#4 241660955#6 241660955#7 241660955#10 241660955#11 241660955#13 241660955#14 241660955#17"/>
    </vehicle>
    <vehicle arrival="907.0" depart="71.0" id="77252_386_0" type="pkw">
        <route edges="-130160207#0 -241660955#16 -241660955#13 -41910184"/>
    </vehicle>
    <vehicle arrival="450.0" depart="72.0" id="91779_392_0" type="pkw">
        <route edges="-41910185#2 -4045329#5"/>
    </vehicle>
    <vehicle arrival="290.0" depart="75.0" id="87924_391_0" type="pkw">
        <route edges="241660957#0 4999331#0"/>
    </vehicle>
    <vehicle arrival="405.0" depart="76.0" id="70727_382_0" type="pkw">
        <route edges="-5229966#3 319261593#15 319261593#16 4145590#0"/>
    </vehicle>
    <vehicle arrival="325.0" depart="77.0" id="76113_386_0" type="pkw">
        <route edges="-5229966#3 319261593#15 319261593#16 4145590#0"/>
    </vehicle>
    <vehicle arrival="393.0" depart="77.0" id="91586_392_0" type="pkw">
        <route edges="4999334 -241660955#5 -241660955#3 4145590#0"/>
    </vehicle>
    <vehicle arrival="143.0" depart="79.0" id="60370_376_0" type="pkw">
        <route edges="-31800061#0 -41910186"/>
    </vehicle>
    <vehicle arrival="312.0" depart="79.0" id="91737_392_0" type="pkw">
        <route edges="-241660955#17 -241660955#16 -241660955#13 -241660955#12 -241660955#10 -241660955#9 -241660955#6 -241660955#5 -241660955#3 -200818108#1 -31864804"/>
    </vehicle>
    <vehicle arrival="407.0" depart="79.0" id="61413_376_0" type="pkw">
        <route edges="-5229966#3 319261593#15 319261593#16 4145590#0"/>
    </vehicle>
    <vehicle arrival="133.0" depart="81.0" id="80728_388_0" type="pkw">
        <route edges="41910184 -241660955#12 -4045330"/>
    </vehicle>
    <vehicle arrival="150.0" depart="81.0" id="80128_388_0" type="pkw">
        <route edges="-241660955#17 -241660955#16 -241660955#13 -241660955#12 -241660955#10 -4045329#5"/>
    </vehicle>
    <vehicle arrival="1219.0" depart="82.0" id="91090_391_0" type="pkw">
        <route edges="4045329#5 -241660955#9 -241660955#6 -241660955#5 31800061#0"/>
    </vehicle>
    <vehicle arrival="2065.0" depart="82.0" id="77891_386_0" type="pkw">
        <route edges="41910186 -241660955#3 4145590#0"/>
    </vehicle>
    <vehicle arrival="126.0" depart="83.0" id="83143_390_0" type="pkw">
        <route edges="-241660955#17 -241660955#16 -241660955#13 -241660955#12"/>
    </vehicle>
    <vehicle arrival="717.0" depart="83.0" id="91637_392_0" type="pkw">
        <route edges="241660957#0 4999331#0"/>
    </vehicle>
    <vehicle arrival="227.0" depart="85.0" id="68702_381_0" type="pkw">
        <route edges="41910184 241660955#13 241660955#14 130160207#0"/>
    </vehicle>
    <vehicle arrival="1725.0" depart="87.0" id="75389_386_0" type="pkw">
        <route edges="-5229966#3 319261593#15 8197886#0 200818108#0 4145590#0"/>
    </vehicle>
    <vehicle arrival="424.0" depart="89.0" id="89490_391_0" type="pkw">
        <route edges="241660957#0 4999331#0"/>
    </vehicle>
    <vehicle arrival="1123.0" depart="91.0" id="83181_390_0" type="pkw">
        <route edges="319261593#12 319261593#15 319261593#16 4145590#0"/>
    </vehicle>
    <vehicle arrival="539.0" depart="93.0" id="78550_387_0" type="pkw">
        <route edges="-41910185#2 241660955#10 241660955#11 241660955#13 241660955#14 241660955#17"/>
    </vehicle>
    <vehicle arrival="938.0" depart="93.0" id="68590_381_0" type="pkw">
        <route edges="41910184 241660955#13 241660955#14 241660955#17"/>
    </vehicle>
    <vehicle arrival="587.0" depart="95.0" id="103619_397_0" type="pkw">
        <route edges="319261593#12 319261593#15 319261593#16 4145590#0"/>
    </vehicle>
    <vehicle arrival="239.0" depart="97.0" id="94822_393_0" type="pkw">
        <route edges="241660957#0 4999331#0"/>
    </vehicle>
    <vehicle arrival="576.0" depart="98.0" id="80524_388_0" type="pkw">
        <route edges="-130160207#0 -241660955#16 -241660955#13 -41910184"/>
    </vehicle>
    <vehicle arrival="1058.0" depart="98.0" id="77711_386_0" type="pkw">
        <route edges="41910184 241660955#13 241660955#14 241660955#17"/>
    </vehicle>
    <vehicle arrival="3375.0" depart="102.0" id="86478_391_0" type="pkw">
        <route edges="319261593#12 319261593#15 319261593#16 241660955#0 241660955#4 241660955#6 241660955#7 241660955#10 241660955#11 241660955#13 241660955#14 241660955#17"/>
    </vehicle>
    <vehicle arrival="148.0" depart="107.0" id="66585_380_0" type="pkw">
        <route edges="31864804 200818108#0 4145590#0"/>
    </vehicle>
    <vehicle arrival="437.0" depart="115.0" id="68967_381_0" type="pkw">
        <route edges="-5229966#3 319261593#15 319261593#16 4145590#0"/>
    </vehicle>
    <vehicle arrival="585.0" depart="115.0" id="90155_391_0" type="pkw">
        <route edges="4999334 -241660955#5 -241660955#3 -200818108#1 -31864804"/>
    </vehicle>
    <vehicle arrival="1455.0" depart="117.0" id="102218_396_0" type="pkw">
        <route edges="-5229966#3 319261593#15 319261593#16 241660955#0 241660955#4 241660955#6 241660955#7 241660955#10 241660955#11 241660955#13 241660955#14 241660955#17"/>
    </vehicle>
    <vehicle arrival="1560.0" depart="117.0" id="101730_396_0" type="pkw">
        <route edges="-41910185#2 241660955#10 241660955#11 241660955#13 241660955#14 241660955#17"/>
    </vehicle>
    <vehicle arrival="1392.0" depart="120.0" id="87669_391_0" type="pkw">
        <route edges="4145589#0"/>
    </vehicle>
    <vehicle arrival="1547.0" depart="120.0" id="88689_391_0" type="pkw">
        <route edges="31864804 200818108#0 241660955#0 241660955#4 241660955#6 241660955#7 241660955#10 241660955#11 241660955#13 241660955#14 241660955#17"/>
    </vehicle>
    <vehicle arrival="1166.0" depart="121.0" id="103450_397_0" type="pkw">
        <route edges="41910184 241660955#13 241660955#14 241660955#17"/>
    </vehicle>
    <vehicle arrival="333.0" depart="123.0" id="66867_380_0" type="pkw">
        <route edges="-241660955#17 -241660955#16 -241660955#13 -241660955#12 -241660955#10 -241660955#9 -241660955#6 -241660955#5 -241660955#3 -200818108#1 -31864804"/>
    </vehicle>
    <vehicle arrival="181.0" depart="124.0" id="78271_386_0" type="pkw">
        <route edges="-130160207#0 241660955#17"/>
    </vehicle>
    <vehicle arrival="201.0" depart="124.0" id="101412_396_0" type="pkw">
        <route edges="319261593#12 319261593#15 319261593#16 4145590#0"/>
    </vehicle>
    <vehicle arrival="348.0" depart="124.0" id="79723_387_0" type="pkw">
        <route edges="-241660955#17 -241660955#16 -241660955#13 -41910184"/>
    </vehicle>
    <vehicle arrival="255.0" depart="126.0" id="74976_386_0" type="pkw">
        <route edges="319261593#12 319261593#15 8197886#0 -31864804"/>
    </vehicle>
    <vehicle arrival="1714.0" depart="133.0" id="84461_390_0" type="pkw">
        <route edges="241660955#0 241660955#4 241660955#6 241660955#7 241660955#10 241660955#11 241660955#13 241660955#14 241660955#17"/>
    </vehicle>
    <vehicle arrival="313.0" depart="134.0" id="56290_373_0" type="pkw">
        <route edges="31864804 200818108#0 4999331#0"/>
    </vehicle>
    <vehicle arrival="195.0" depart="135.0" id="57097_374_0" type="pkw">
        <route edges="-241660955#17 -241660955#16 4145589#0"/>
    </vehicle>
    <vehicle arrival="267.0" depart="137.0" id="92651_392_0" type="pkw">
        <route edges="-241660955#17 -241660955#16 -241660955#13 -241660955#12 -241660955#10 -241660955#9 -241660955#6 -241660955#5 -241660955#3 -200818108#1 -31864804"/>
    </vehicle>
    <vehicle arrival="509.0" depart="140.0" id="76328_386_0" type="pkw">
        <route edges="-241660955#17 -241660955#16 -241660955#13 -241660955#12 -241660955#10 -241660955#9 -241660955#6 -241660955#5 -241660955#3 -200818108#1 -31864804"/>
    </vehicle>
    <vehicle arrival="238.0" depart="143.0" id="94529_393_0" type="pkw">
        <route edges="-5229966#3 319261593#15 319261593#16 4145590#0"/>
    </vehicle>
    <vehicle arrival="506.0" depart="143.0" id="107146_400_0" type="pkw">
        <route edges="-241660955#17 -241660955#16 -241660955#13 -41910184"/>
    </vehicle>
    <vehicle arrival="175.0" depart="145.0" id="67342_380_0" type="pkw">
        <route edges="31864804 -31864804"/>
    </vehicle>
    <vehicle arrival="570.0" depart="145.0" id="67449_381_0" type="pkw">
        <route edges="241660957#0 4999331#0"/>
    </vehicle>
    <vehicle arrival="615.0" depart="145.0" id="73044_384_0" type="pkw">
        <route edges="-241660955#17 -241660955#16 -241660955#13 -41910184"/>
    </vehicle>
    <vehicle arrival="265.0" depart="149.0" id="97817_395_0" type="pkw">
        <route edges="41910186 31800061#0"/>
    </vehicle>
    <vehicle arrival="283.0" depart="152.0" id="64988_379_0" type="pkw">
        <route edges="241660957#0 4999331#0"/>
    </vehicle>
    <vehicle arrival="438.0" depart="152.0" id="78154_386_0" type="pkw">
        <route edges="31864804 200818108#0 4999331#0"/>
    </vehicle>
    <vehicle arrival="358.0" depart="154.0" id="75439_386_0" type="pkw">
        <route edges="-5229966#3 319261593#15 319261593#16 4145590#0"/>
    </vehicle>
    <vehicle arrival="754.0" depart="154.0" id="59915_376_0" type="pkw">
        <route edges="-241660955#17 -241660955#16 -241660955#13 -241660955#12 -241660955#10 -241660955#9 -241660955#6 -241660955#5 -241660955#3 -200818108#1 -31864804"/>
    </vehicle>
    <vehicle arrival="396.0" depart="155.0" id="64960_379_0" type="pkw">
        <route edges="319261593#12 319261593#15 8197886#0 200818108#0 4145590#0"/>
    </vehicle>
    <vehicle arrival="222.0" depart="156.0" id="100489_396_0" type="pkw">
        <route edges="-241660955#17 -241660955#16 4145589#0"/>
    </vehicle>
    <vehicle arrival="340.0" depart="156.0" id="92649_392_0" type="pkw">
        <route edges="4999334 241660955#6 241660955#7 241660955#10 241660955#11 241660955#13 241660955#14 241660955#17"/>
    </vehicle>
    <vehicle arrival="1026.0" depart="156.0" id="87091_391_0" type="pkw">
        <route edges="319261593#12 319261593#15 319261593#16 4145590#0"/>
    </vehicle>
    <vehicle arrival="299.0" depart="157.0" id="92792_392_0" type="pkw">
        <route edges="241660957#0 4999331#0"/>
    </vehicle>
    <vehicle arrival="208.0" depart="159.0" id="57989_375_0" type="pkw">
        <route edges="319261593#12 319261593#15 319261593#16 4145590#0"/>
    </vehicle>
    <vehicle arrival="324.0" depart="159.0" id="89113_391_0" type="pkw">
        <route edges="241660957#0 4999331#0"/>
    </vehicle>
    <vehicle arrival="542.0" depart="159.0" id="82294_389_0" type="pkw">
        <route edges="-241660955#17 -241660955#16 -241660955#13 -41910184"/>
    </vehicle>
    <vehicle arrival="430.0" depart="161.0" id="95965_394_0" type="pkw">
        <route edges="31864804 200818108#0 4999331#0"/>
    </vehicle>
    <vehicle arrival="517.0" depart="161.0" id="91342_391_0" type="pkw">
        <route edges="-41910185#2 -4045329#5"/>
    </vehicle>
    <vehicle arrival="330.0" depart="163.0" id="97128_395_0" type="pkw">
        <route edges="-241660955#17 -241660955#16 -241660955#13 -241660955#12 -241660955#10 -241660955#9 -241660955#6 -241660955#5 -241660955#3 4145590#0"/>
    </vehicle>
    <vehicle arrival="1404.0" depart="163.0" id="92407_392_0" type="pkw">
        <route edges="4999334 241660955#6 241660955#7 241660955#10 241660955#11 241660955#13 241660955#14 241660955#17"/>
    </vehicle>
    <vehicle arrival="953.0" depart="170.0" id="63770_377_0" type="pkw">
        <route edges="41910184 241660955#13 241660955#14 241660955#17"/>
    </vehicle>
    <vehicle arrival="896.0" depart="172.0" id="60506_376_0" type="pkw">
        <route edges="41910184 241660955#13 241660955#14 241660955#17"/>
    </vehicle>
    <vehicle arrival="582.0" depart="174.0" id="95355_394_0" type="pkw">
        <route edges="241660957#0 4999331#0"/>
    </vehicle>
    <vehicle arrival="648.0" depart="174.0" id="69939_382_0" type="pkw">
        <route edges="-241660955#17 -241660955#16 -241660955#13 -41910184"/>
    </vehicle>
    <vehicle arrival="536.0" depart="175.0" id="80681_388_0" type="pkw">
        <route edges="31864804 200818108#0 4999331#0"/>
    </vehicle>
    <vehicle arrival="1126.0" depart="175.0" id="58612_375_0" type="pkw">
        <route edges="41910184 241660955#13 241660955#14 241660955#17"/>
    </vehicle>
    <vehicle arrival="272.0" depart="176.0" id="70564_382_0" type="pkw">
        <route edges="-5229966#3 319261593#15 319261593#16 241660955#0 241660955#4 -4999334"/>
    </vehicle>
    <vehicle arrival="368.0" depart="176.0" id="95812_394_0" type="pkw">
        <route edges="-241660955#17 -241660955#16 -241660955#13 -241660955#12 -241660955#10 -241660955#9 -241660955#6 -241660955#5 -241660955#3 -200818108#1 -31864804"/>
    </vehicle>
    <vehicle arrival="761.0" depart="177.0" id="74721_385_0" type="pkw">
        <route edges="41910184 241660955#13 241660955#14 241660955#17"/>
    </vehicle>
    <vehicle arrival="267.0" depart="178.0" id="74639_385_0" type="pkw">
        <route edges="-5229966#3 319261593#15 319261593#16 241660955#0 -41910186"/>
    </vehicle>
    <vehicle arrival="293.0" depart="178.0" id="62686_377_0" type="pkw">
        <route edges="241660957#0 4999331#0"/>
    </vehicle>
    <vehicle arrival="849.0" depart="178.0" id="103028_397_0" type="pkw">
        <route edges="241660957#0 4999331#0"/>
    </vehicle>
    <vehicle arrival="593.0" depart="181.0" id="56988_374_0" type="pkw">
        <route edges="31864804 200818108#0 4999331#0"/>
    </vehicle>
    <vehicle arrival="496.0" depart="183.0" id="86393_391_0" type="pkw">
        <route edges="31864804 200818108#0 4999331#0"/>
    </vehicle>
    <vehicle arrival="535.0" depart="188.0" id="66245_380_0" type="pkw">
        <route edges="241660957#0 4999331#0"/>
    </vehicle>
    <vehicle arrival="1103.0" depart="192.0" id="111742_401_0" type="pkw">
        <route edges="241660955#4 241660955#6 241660955#7 241660955#10 241660955#11 241660955#13 241660955#14 241660955#17"/>
    </vehicle>
    <vehicle arrival="800.0" depart="194.0" id="96714_395_0" type="pkw">
        <route edges="241660957#0 4999331#0"/>
    </vehicle>
    <vehicle arrival="218.0" depart="195.0" id="73563_385_0" type="pkw">
        <route edges="31864804 200818108#0 4145590#0"/>
    </vehicle>
    <vehicle arrival="812.0" depart="197.0" id="78388_387_0" type="pkw">
        <route edges="31864804 200818108#0 241660955#0 241660955#4 -4999334"/>
    </vehicle>
    <vehicle arrival="280.0" depart="198.0" id="102469_396_0" type="pkw">
        <route edges="-31800061#0 241660955#4 -4999334"/>
    </vehicle>
    <vehicle arrival="422.0" depart="198.0" id="85893_391_0" type="pkw">
        <route edges="-5229966#3 319261593#15 319261593#16 4145590#0"/>
    </vehicle>
    <vehicle arrival="582.0" depart="198.0" id="77551_386_0" type="pkw">
        <route edges="241660957#0 4999331#0"/>
    </vehicle>
    <vehicle arrival="683.0" depart="199.0" id="81364_389_0" type="pkw">
        <route edges="31864804 200818108#0 241660955#0 241660955#4 -4999334"/>
    </vehicle>
    <vehicle arrival="1446.0" depart="200.0" id="86398_391_0" type="pkw">
        <route edges="31864804 200818108#0 241660955#0 241660955#4 241660955#6 241660955#7 241660955#10 241660955#11 241660955#13 241660955#14 241660955#17"/>
    </vehicle>
    <vehicle arrival="273.0" depart="202.0" id="99494_396_0" type="pkw">
        <route edges="-31800061#0 -41910186"/>
    </vehicle>
    <vehicle arrival="1980.0" depart="202.0" id="91567_392_0" type="pkw">
        <route edges="31864804 200818108#0 241660955#0 241660955#4 -4999334"/>
    </vehicle>
    <vehicle arrival="548.0" depart="204.0" id="98386_395_0" type="pkw">
        <route edges="241660957#0 4999331#0"/>
    </vehicle>
    <vehicle arrival="1845.0" depart="204.0" id="82004_389_0" type="pkw">
        <route edges="41910184 241660955#13 241660955#14 241660955#17"/>
    </vehicle>
    <vehicle arrival="922.0" depart="205.0" id="100788_396_0" type="pkw">
        <route edges="319261593#12 319261593#15 319261593#16 4145590#0"/>
    </vehicle>
    <vehicle arrival="714.0" depart="207.0" id="89578_391_0" type="pkw">
        <route edges="319261593#12 319261593#15 319261593#16 4145590#0"/>
    </vehicle>
    <vehicle arrival="304.0" depart="208.0" id="72740_384_0" type="pkw">
        <route edges="-5229966#3 319261593#15 319261593#16 241660955#0 241660955#4 -4999334"/>
    </vehicle>
    <vehicle arrival="796.0" depart="209.0" id="77600_386_0" type="pkw">
        <route edges="31864804 200818108#0 4999331#0"/>
    </vehicle>
    <vehicle arrival="3014.0" depart="209.0" id="103558_397_0" type="pkw">
        <route edges="31864804 200818108#0 241660955#0 241660955#4 241660955#6 241660955#7 241660955#10 241660955#11 241660955#13 241660955#14 241660955#17"/>
    </vehicle>
    <vehicle arrival="310.0" depart="210.0" id="62969_377_0" type="pkw">
        <route edges="-130160207#0 241660955#17"/>
    </vehicle>
    <vehicle arrival="395.0" depart="211.0" id="64979_379_0" type="pkw">
        <route edges="319261593#12 319261593#15 319261593#16 4145590#0"/>
    </vehicle>
    <vehicle arrival="610.0" depart="211.0" id="104303_397_0" type="pkw">
        <route edges="31864804 200818108#0 4999331#0"/>
    </vehicle>
    <vehicle arrival="258.0" depart="212.0" id="87249_391_0" type="pkw">
        <route edges="319261593#12 319261593#15 8197886#0 -31864804"/>
    </vehicle>
    <vehicle arrival="434.0" depart="212.0" id="67630_381_0" type="pkw">
        <route edges="-5229966#3 319261593#15 319261593#16 4145590#0"/>
    </vehicle>
    <vehicle arrival="366.0" depart="213.0" id="103216_397_0" type="pkw">
        <route edges="241660957#0 4999331#0"/>
    </vehicle>
    <vehicle arrival="396.0" depart="214.0" id="97544_395_0" type="pkw">
        <route edges="241660957#0 4999331#0"/>
    </vehicle>
    <vehicle arrival="304.0" depart="215.0" id="100969_396_0" type="pkw">
        <route edges="-5229966#3 319261593#15 319261593#16 4145590#0"/>
    </vehicle>
    <vehicle arrival="1957.0" depart="215.0" id="91441_392_0" type="pkw">
        <route edges="-5229966#3 319261593#15 319261593#16 241660955#0 241660955#4 241660955#6 241660955#7 241660955#10 241660955#11 241660955#13 241660955#14 241660955#17"/>
    </vehicle>
    <vehicle arrival="391.0" depart="223.0" id="103586_397_0" type="pkw">
        <route edges="241660957#0 4999331#0"/>
    </vehicle>
    <vehicle arrival="451.0" depart="227.0" id="90321_391_0" type="pkw">
        <route edges="319261593#12 319261593#15 319261593#16 4145590#0"/>
    </vehicle>
    <vehicle arrival="840.0" depart="227.0" id="87216_391_0" type="pkw">
        <route edges="4045330 241660955#11 241660955#13 241660955#14 241660955#17"/>
    </vehicle>
    <vehicle arrival="975.0" depart="228.0" id="107798_400_0" type="pkw">
        <route edges="-4045329#5 4045329#5 241660955#10 241660955#11 241660955#13 241660955#14 241660955#17"/>
    </vehicle>
    <vehicle arrival="293.0" depart="229.0" id="56011_373_0" type="pkw">
        <route edges="-241660955#17 130160207#0"/>
    </vehicle>
    <vehicle arrival="1300.0" depart="229.0" id="80522_388_0" type="pkw">
        <route edges="319261593#12 319261593#15 319261593#16 4145590#0"/>
    </vehicle>
    <vehicle arrival="779.0" depart="231.0" id="94385_393_0" type="pkw">
        <route edges="-130160207#0 241660955#17"/>
    </vehicle>
    <vehicle arrival="1337.0" depart="234.0" id="100743_396_0" type="pkw">
        <route edges="-241660955#3 241660955#0 241660955#4 241660955#6 241660955#7 241660955#10 241660955#11 241660955#13 241660955#14 241660955#17"/>
    </vehicle>
    <vehicle arrival="646.0" depart="236.0" id="90578_391_0" type="pkw">
        <route edges="241660957#0 4999331#0"/>
    </vehicle>
    <vehicle arrival="376.0" depart="237.0" id="68066_381_0" type="pkw">
        <route edges="-130160207#0 241660955#17"/>
    </vehicle>
    <vehicle arrival="408.0" depart="239.0" id="94471_393_0" type="pkw">
        <route edges="241660957#0 4999331#0"/>
    </vehicle>
    <vehicle arrival="673.0" depart="241.0" id="91329_391_0" type="pkw">
        <route edges="4045329#5 -241660955#9 -241660955#6 -241660955#5 -241660955#3 4145590#0"/>
    </vehicle>
    <vehicle arrival="368.0" depart="242.0" id="84726_390_0" type="pkw">
        <route edges="241660957#0 4999331#0"/>
    </vehicle>
    <vehicle arrival="736.0" depart="242.0" id="88767_391_0" type="pkw">
        <route edges="-41910186"/>
    </vehicle>
    <vehicle arrival="317.0" depart="244.0" id="81945_389_0" type="pkw">
        <route edges="-241660955#17 -241660955#16 -241660955#13 -41910184"/>
    </vehicle>
    <vehicle arrival="336.0" depart="244.0" id="87615_391_0" type="pkw">
        <route edges="319261593#12 319261593#15 8197886#0 -31864804"/>
    </vehicle>
    <vehicle arrival="325.0" depart="247.0" id="83718_390_0" type="pkw">
        <route edges="319261593#12 319261593#15 319261593#16 4999331#0"/>
    </vehicle>
    <vehicle arrival="794.0" depart="247.0" id="94053_393_0" type="pkw">
        <route edges="-4999334"/>
    </vehicle>
    <vehicle arrival="1530.0" depart="248.0" id="94836_393_0" type="pkw">
        <route edges="41910184 241660955#13 241660955#14 130160207#0"/>
    </vehicle>
    <vehicle arrival="365.0" depart="249.0" id="70677_382_0" type="pkw">
        <route edges="241660957#0 4999331#0"/>
    </vehicle>
    <vehicle arrival="809.0" depart="250.0" id="94683_393_0" type="pkw">
        <route edges="41910184 241660955#13 241660955#14 241660955#17"/>
    </vehicle>
    <vehicle arrival="453.0" depart="254.0" id="62692_377_0" type="pkw">
        <route edges="41910184 241660955#13 241660955#14 130160207#0"/>
    </vehicle>
    <vehicle arrival="1237.0" depart="256.0" id="90142_391_0" type="pkw">
        <route edges="31864804 200818108#0 4145590#0"/>
    </vehicle>
    <vehicle arrival="742.0" depart="258.0" id="95584_394_0" type="pkw">
        <route edges="241660957#0 4999331#0"/>
    </vehicle>
    <vehicle arrival="432.0" depart="259.0" id="82693_389_0" type="pkw">
        <route edges="241660957#0 4999331#0"/>
    </vehicle>
    <vehicle arrival="690.0" depart="260.0" id="82945_390_0" type="pkw">
        <route edges="241660957#0 4999331#0"/>
    </vehicle>
    <vehicle arrival="812.0" depart="260.0" id="92766_392_0" type="pkw">
        <route edges="241660955#11 241660955#13 241660955#14 241660955#17"/>
    </vehicle>
    <vehicle arrival="1190.0" depart="262.0" id="93473_392_0" type="pkw">
        <route edges="241660957#0 4999331#0"/>
    </vehicle>
    <vehicle arrival="735.0" depart="263.0" id="66580_380_0" type="pkw">
        <route edges="-241660955#17 -241660955#16 -241660955#13 -241660955#12 -241660955#10 -241660955#9 -241660955#6 -241660955#5 -241660955#3 -200818108#1 -31864804"/>
    </vehicle>
    <vehicle arrival="411.0" depart="268.0" id="75808_386_0" type="pkw">
        <route edges="-130160207#0 241660955#17"/>
    </vehicle>
    <vehicle arrival="742.0" depart="274.0" id="92642_392_0" type="pkw">
        <route edges="241660957#0 4999331#0"/>
    </vehicle>
    <vehicle arrival="1268.0" depart="275.0" id="96727_395_0" type="pkw">
        <route edges="31864804 200818108#0 4999331#0"/>
    </vehicle>
    <vehicle arrival="614.0" depart="277.0" id="103185_397_0" type="pkw">
        <route edges="4999334 -241660955#5 -241660955#3 4145590#0"/>
    </vehicle>
    <vehicle arrival="684.0" depart="277.0" id="91321_391_0" type="pkw">
        <route edges="241660957#0 4999331#0"/>
    </vehicle>