<?xml version="1.0" encoding="UTF-8"?>

<!-- generated on 2023-10-13 00:43:50.813966 by randomTrips.py v1_18_0+0000-03ecfdea036
<configuration>
    <net-file value="nets/cologne3/cologne3.net.xml"/>
    <output-trip-file value="nets/cologne3/cologne3.rou.xml"/>
    <lanes value="True"/>
    <fringe-factor value="10"/>
    <random value="True"/>
    <min-distance value="50.0"/>
    <validate value="True"/>
    <random-depart value="True"/>
    <duarouter-remove-loops value="true"/>
</configuration>
-->

<!-- generated on 2023-10-13 00:43:50 by Eclipse SUMO duarouter Version 1.18.0
<configuration xmlns:xsi="http://www.w3.org/2001/XMLSchema-instance" xsi:noNamespaceSchemaLocation="http://sumo.dlr.de/xsd/duarouterConfiguration.xsd">

    <input>
        <net-file value="nets/cologne3/cologne3.net.xml"/>
        <route-files value="nets/cologne3/cologne3.rou.xml"/>
    </input>

    <output>
        <output-file value="nets/cologne3/cologne3.rou.xml.tmp"/>
        <alternatives-output value="NUL"/>
        <write-trips value="true"/>
    </output>

    <processing>
        <remove-loops value="true"/>
    </processing>

    <time>
        <begin value="0"/>
        <end value="3600.0"/>
    </time>

    <report>
        <no-warnings value="true"/>
        <ignore-errors value="true"/>
        <no-step-log value="true"/>
    </report>

</configuration>
-->

<routes xmlns:xsi="http://www.w3.org/2001/XMLSchema-instance" xsi:noNamespaceSchemaLocation="http://sumo.dlr.de/xsd/routes_file.xsd">
    <trip id="0" depart="2.00" from="-241660955#17" to="-241660955#6"/>
    <trip id="1" depart="3.00" from="319261593#12" to="-31864804"/>
    <trip id="3" depart="6.00" from="31864804" to="4145590#0"/>
    <trip id="4" depart="7.00" from="-241660955#17" to="4999331#0"/>
    <trip id="5" depart="8.00" from="-41910185#2" to="-31864804"/>
    <trip id="6" depart="9.00" from="31864804" to="4145590#0"/>
    <trip id="7" depart="10.00" from="319261593#12" to="241660955#17"/>
    <trip id="8" depart="11.00" from="41910184" to="4999331#0"/>
    <trip id="9" depart="12.00" from="319261593#12" to="4145589#0"/>
    <trip id="10" depart="14.00" from="-41910185#2" to="4999331#0"/>
    <trip id="11" depart="14.00" from="-31800061#0" to="-31864804"/>
    <trip id="13" depart="18.00" from="-31800061#0" to="-31864804"/>
    <trip id="14" depart="19.00" from="200818108#0" to="130160207#0"/>
    <trip id="15" depart="19.00" from="-31800061#0" to="4045332#0"/>
    <trip id="16" depart="20.00" from="-5229966#3" to="4145590#0"/>
    <trip id="17" depart="21.00" from="4999334" to="241660955#17"/>
    <trip id="18" depart="23.00" from="-241660955#6" to="4145590#0"/>
    <trip id="19" depart="25.00" from="31864804" to="241660955#13"/>
    <trip id="20" depart="26.00" from="241660955#0" to="4145589#0"/>
    <trip id="21" depart="26.00" from="41910186" to="4145590#0"/>
    <trip id="22" depart="26.00" from="4045330" to="4145590#0"/>
    <trip id="23" depart="28.00" from="-31800061#0" to="241660955#11"/>
    <trip id="24" depart="28.00" from="-41910185#2" to="241660955#17"/>
    <trip id="26" depart="31.00" from="241660955#4" to="4145589#0"/>
    <trip id="27" depart="31.00" from="4045330" to="4999331#0"/>
    <trip id="28" depart="33.00" from="31864804" to="-41910184"/>
    <trip id="30" depart="34.00" from="-241660955#17" to="4145590#0"/>
    <trip id="31" depart="36.00" from="241660955#0" to="-4045329#5"/>
    <trip id="32" depart="37.00" from="31864804" to="-4999334"/>
    <trip id="33" depart="38.00" from="4045330" to="-31864804"/>
    <trip id="34" depart="39.00" from="31864804" to="4999331#0"/>
    <trip id="35" depart="39.00" from="241660957#0" to="-4045330"/>
    <trip id="36" depart="39.00" from="4045329#5" to="31800061#0"/>
    <trip id="37" depart="40.00" from="-5229966#3" to="-41910186"/>
    <trip id="38" depart="41.00" from="319261593#12" to="241660955#4"/>
    <trip id="39" depart="41.00" from="241660955#0" to="241660955#7"/>
    <trip id="40" depart="42.00" from="319261593#12" to="-31864804"/>
    <trip id="41" depart="42.00" from="200818108#0" to="-4999334"/>
    <trip id="42" depart="43.00" from="319261593#12" to="-41910184"/>
    <trip id="43" depart="43.00" from="4999334" to="-31864804"/>
    <trip id="44" depart="44.00" from="200818108#0" to="-41910184"/>
    <trip id="46" depart="47.00" from="-41910185#2" to="-41910186"/>
    <trip id="47" depart="47.00" from="-130160207#0" to="-31864804"/>
    <trip id="49" depart="49.00" from="41910184" to="241660955#17"/>
    <trip id="51" depart="50.00" from="31864804" to="241660955#14"/>
    <trip id="52" depart="54.00" from="4045330" to="4999331#0"/>
    <trip id="53" depart="56.00" from="41910186" to="4145590#0"/>
    <trip id="54" depart="56.00" from="241660957#0" to="31800061#0"/>
    <trip id="55" depart="57.00" from="319261593#12" to="-41910186"/>
    <trip id="56" depart="57.00" from="4045329#5" to="-41910184"/>
    <trip id="57" depart="59.00" from="4045330" to="-31864804"/>
    <trip id="58" depart="60.00" from="41910186" to="41910185#0"/>
    <trip id="59" depart="61.00" from="319261593#12" to="4145590#0"/>
    <trip id="60" depart="63.00" from="31864804" to="-41910184"/>
    <trip id="61" depart="64.00" from="241660955#6" to="41910185#0"/>
    <trip id="63" depart="65.00" from="8197886#0" to="-31864804"/>
    <trip id="64" depart="65.00" from="41910184" to="4045332#0"/>
    <trip id="66" depart="68.00" from="4999334" to="-4045329#5"/>
    <trip id="67" depart="68.00" from="-130160207#0" to="4999331#0"/>
    <trip id="68" depart="68.00" from="-241660955#13" to="41910185#0"/>
    <trip id="69" depart="68.00" from="-130160207#0" to="-4045330"/>
    <trip id="71" depart="70.00" from="4999334" to="-31864804"/>
    <trip id="74" depart="75.00" from="31864804" to="-4045330"/>
    <trip id="75" depart="75.00" from="319261593#12" to="241660955#11"/>
    <trip id="77" depart="76.00" from="241660957#0" to="-31864804"/>
    <trip id="78" depart="76.00" from="-241660955#17" to="-241660955#6"/>
    <trip id="80" depart="79.00" from="4045329#5" to="4145590#0"/>
    <trip id="81" depart="80.00" from="319261593#12" to="-41910186"/>
    <trip id="82" depart="80.00" from="-31800061#0" to="4999331#0"/>
    <trip id="83" depart="81.00" from="4045329#5" to="4145590#0"/>
    <trip id="85" depart="84.00" from="-241660955#17" to="4145590#0"/>
    <trip id="86" depart="85.00" from="31864804" to="241660955#6"/>
    <trip id="88" depart="88.00" from="41910184" to="4145589#0"/>
    <trip id="89" depart="89.00" from="-5229966#3" to="-31864804"/>
    <trip id="90" depart="89.00" from="241660957#0" to="-41910184"/>
    <trip id="91" depart="90.00" from="-241660955#12" to="4999331#0"/>
    <trip id="92" depart="90.00" from="-241660955#17" to="4045332#0"/>
    <trip id="93" depart="92.00" from="241660957#0" to="4999331#0"/>
    <trip id="95" depart="93.00" from="-241660955#17" to="41910185#0"/>
    <trip id="96" depart="93.00" from="-241660955#9" to="-31864804"/>
    <trip id="97" depart="95.00" from="4999334" to="-241660955#5"/>
    <trip id="98" depart="98.00" from="31864804" to="241660955#17"/>
    <trip id="99" depart="98.00" from="4999334" to="-4045329#5"/>
    <trip id="100" depart="101.00" from="241660957#0" to="-31864804"/>
    <trip id="102" depart="103.00" from="31864804" to="-4045330"/>
    <trip id="103" depart="104.00" from="-241660955#17" to="4145590#0"/>
    <trip id="105" depart="105.00" from="4045330" to="-41910184"/>
    <trip id="107" depart="107.00" from="241660957#0" to="4999331#0"/>
    <trip id="108" depart="108.00" from="319261593#12" to="-4999334"/>
    <trip id="110" depart="109.00" from="241660955#0" to="-41910186"/>
    <trip id="111" depart="109.00" from="-241660955#3" to="4999331#0"/>
    <trip id="112" depart="110.00" from="-41910185#2" to="130160207#0"/>
    <trip id="113" depart="110.00" from="-31800061#0" to="-41910184"/>
    <trip id="115" depart="111.00" from="4045329#5" to="-4045330"/>
    <trip id="116" depart="111.00" from="319261593#12" to="-4045329#5"/>
    <trip id="117" depart="112.00" from="4999334" to="-31864804"/>
    <trip id="118" depart="112.00" from="31864804" to="-4045330"/>
    <trip id="119" depart="113.00" from="-31800061#0" to="4145590#0"/>
    <trip id="120" depart="115.00" from="4045329#5" to="-4045330"/>
    <trip id="121" depart="115.00" from="-241660955#17" to="-31864804"/>
    <trip id="122" depart="115.00" from="41910184" to="241660955#17"/>
    <trip id="123" depart="116.00" from="-130160207#0" to="241660955#17"/>
    <trip id="125" depart="118.00" from="4045329#5" to="4145590#0"/>
    <trip id="126" depart="121.00" from="-5229966#3" to="-4045330"/>
    <trip id="128" depart="123.00" from="-5229966#3" to="-41910184"/>
    <trip id="129" depart="123.00" from="41910184" to="-4999334"/>
    <trip id="130" depart="126.00" from="4045329#5" to="-41910186"/>
    <trip id="131" depart="126.00" from="4999334" to="241660955#17"/>
    <trip id="132" depart="126.00" from="31864804" to="200818108#0"/>
    <trip id="133" depart="126.00" from="4045330" to="-41910186"/>
    <trip id="134" depart="127.00" from="4045330" to="41910185#0"/>
    <trip id="135" depart="127.00" from="4045330" to="-41910184"/>
    <trip id="136" depart="128.00" from="4999334" to="4999331#0"/>
    <trip id="138" depart="128.00" from="319261593#12" to="41910185#0"/>
    <trip id="139" depart="129.00" from="4045329#5" to="130160207#0"/>
    <trip id="140" depart="131.00" from="241660957#0" to="-4999334"/>
    <trip id="141" depart="131.00" from="241660955#6" to="-41910184"/>
    <trip id="142" depart="132.00" from="-241660955#17" to="4999331#0"/>
    <trip id="143" depart="132.00" from="241660957#0" to="4999331#0"/>
    <trip id="144" depart="134.00" from="241660955#0" to="-41910184"/>
    <trip id="145" depart="135.00" from="-241660955#13" to="4045332#0"/>
    <trip id="146" depart="138.00" from="-41910185#2" to="241660955#17"/>
    <trip id="147" depart="138.00" from="31864804" to="241660955#4"/>
    <trip id="149" depart="140.00" from="41910184" to="-4045330"/>
    <trip id="151" depart="144.00" from="241660957#0" to="-41910186"/>
    <trip id="153" depart="145.00" from="-241660955#17" to="4145589#0"/>
    <trip id="154" depart="146.00" from="-241660955#17" to="4045332#0"/>
    <trip id="155" depart="148.00" from="319261593#12" to="-31864804"/>
    <trip id="156" depart="148.00" from="4045329#5" to="41910185#0"/>
    <trip id="159" depart="150.00" from="200818108#0" to="41910185#0"/>
    <trip id="160" depart="150.00" from="241660957#0" to="4145589#0"/>
    <trip id="161" depart="151.00" from="319261593#12" to="4045332#0"/>
    <trip id="162" depart="151.00" from="241660957#0" to="4999331#0"/>
    <trip id="163" depart="151.00" from="4999334" to="241660955#17"/>
    <trip id="164" depart="151.00" from="-130160207#0" to="41910185#0"/>
    <trip id="165" depart="152.00" from="-5229966#3" to="-31864804"/>
    <trip id="166" depart="153.00" from="-130160207#0" to="-41910186"/>
    <trip id="167" depart="154.00" from="319261593#15" to="31800061#0"/>
    <trip id="168" depart="154.00" from="319261593#12" to="241660955#13"/>
    <trip id="169" depart="155.00" from="41910184" to="41910185#0"/>
    <trip id="170" depart="156.00" from="4045329#5" to="241660955#17"/>
    <trip id="172" depart="159.00" from="241660957#0" to="-41910184"/>
    <trip id="174" depart="161.00" from="41910186" to="-31864804"/>
    <trip id="176" depart="161.00" from="319261593#12" to="4145589#0"/>
    <trip id="177" depart="162.00" from="-130160207#0" to="-31864804"/>
    <trip id="181" depart="165.00" from="-241660955#17" to="130160207#0"/>
    <trip id="182" depart="166.00" from="-41910185#2" to="4145590#0"/>
    <trip id="183" depart="167.00" from="-241660955#17" to="-4999334"/>
    <trip id="184" depart="171.00" from="-130160207#0" to="241660955#17"/>
    <trip id="185" depart="171.00" from="-241660955#3" to="-31864804"/>
    <trip id="186" depart="173.00" from="319261593#12" to="-4999334"/>
    <trip id="188" depart="176.00" from="-41910185#2" to="31800061#0"/>
    <trip id="189" depart="177.00" from="4045329#5" to="241660955#14"/>
    <trip id="190" depart="177.00" from="-31800061#0" to="-4045329#5"/>
    <trip id="191" depart="180.00" from="-5229966#3" to="241660955#14"/>
    <trip id="192" depart="180.00" from="4045329#5" to="-31864804"/>
    <trip id="193" depart="181.00" from="41910186" to="-41910184"/>
    <trip id="195" depart="186.00" from="4045330" to="4999331#0"/>
    <trip id="196" depart="186.00" from="241660957#0" to="241660955#7"/>
    <trip id="199" depart="193.00" from="4045330" to="-31864804"/>
    <trip id="200" depart="194.00" from="31864804" to="4045332#0"/>
    <trip id="202" depart="194.00" from="319261593#12" to="-41910184"/>
    <trip id="204" depart="197.00" from="-31800061#0" to="-41910184"/>
    <trip id="205" depart="198.00" from="31864804" to="-4045329#5"/>
    <trip id="207" depart="200.00" from="41910186" to="241660955#6"/>
    <trip id="208" depart="201.00" from="241660957#0" to="4999331#0"/>
    <trip id="209" depart="201.00" from="4045330" to="-4045329#5"/>
    <trip id="210" depart="202.00" from="4999334" to="-31864804"/>
    <trip id="211" depart="203.00" from="-31800061#0" to="-41910186"/>
    <trip id="214" depart="204.00" from="-130160207#0" to="241660955#17"/>
    <trip id="216" depart="205.00" from="4045329#5" to="241660955#11"/>
    <trip id="217" depart="205.00" from="319261593#12" to="-4045330"/>
    <trip id="221" depart="210.00" from="-241660955#17" to="41910185#0"/>
    <trip id="222" depart="210.00" from="241660957#0" to="-41910184"/>
    <trip id="223" depart="212.00" from="241660957#0" to="31800061#0"/>
    <trip id="224" depart="213.00" from="-31800061#0" to="130160207#0"/>
    <trip id="225" depart="213.00" from="4999334" to="241660955#17"/>
    <trip id="226" depart="215.00" from="4045329#5" to="4145590#0"/>
    <trip id="227" depart="216.00" from="4999334" to="241660955#17"/>
    <trip id="228" depart="217.00" from="-5229966#3" to="241660955#13"/>
    <trip id="229" depart="218.00" from="31864804" to="241660955#17"/>
    <trip id="230" depart="219.00" from="241660955#7" to="241660955#7"/>
    <trip id="231" depart="221.00" from="4999334" to="-41910184"/>
    <trip id="232" depart="221.00" from="4045329#5" to="241660955#17"/>
    <trip id="233" depart="222.00" from="241660955#7" to="241660955#17"/>
    <trip id="234" depart="222.00" from="319261593#12" to="241660955#17"/>
    <trip id="235" depart="223.00" from="-41910185#2" to="130160207#0"/>
    <trip id="236" depart="223.00" from="-241660955#10" to="-41910186"/>
    <trip id="237" depart="223.00" from="241660957#0" to="-41910184"/>
    <trip id="238" depart="225.00" from="4999334" to="4145590#0"/>
    <trip id="239" depart="226.00" from="-41910185#2" to="241660955#17"/>
    <trip id="241" depart="228.00" from="-241660955#12" to="-31864804"/>
    <trip id="242" depart="228.00" from="-241660955#17" to="-241660955#16"/>
    <trip id="244" depart="232.00" from="-5229966#3" to="4045332#0"/>
    <trip id="245" depart="233.00" from="31864804" to="4145590#0"/>
    <trip id="247" depart="233.00" from="41910186" to="4999331#0"/>
    <trip id="248" depart="236.00" from="319261593#12" to="31800061#0"/>
    <trip id="249" depart="237.00" from="4999334" to="41910185#0"/>
    <trip id="251" depart="241.00" from="4045329#5" to="130160207#0"/>
    <trip id="252" depart="242.00" from="-31800061#0" to="4999331#0"/>
    <trip id="253" depart="242.00" from="241660957#0" to="-31864804"/>
    <trip id="254" depart="242.00" from="4045329#5" to="4999331#0"/>
    <trip id="256" depart="243.00" from="41910184" to="241660955#17"/>
    <trip id="257" depart="244.00" from="4045329#5" to="241660955#13"/>
    <trip id="258" depart="249.00" from="31864804" to="31800061#0"/>
    <trip id="259" depart="250.00" from="-5229966#3" to="241660955#17"/>
    <trip id="261" depart="254.00" from="241660957#0" to="-31864804"/>
    <trip id="262" depart="256.00" from="41910186" to="241660955#17"/>
    <trip id="264" depart="259.00" from="4999334" to="241660955#13"/>
    <trip id="265" depart="260.00" from="4045330" to="31800061#0"/>
    <trip id="266" depart="262.00" from="200818108#0" to="241660955#17"/>
    <trip id="267" depart="263.00" from="319261593#12" to="-31864804"/>
    <trip id="268" depart="266.00" from="241660957#0" to="130160207#0"/>
    <trip id="269" depart="266.00" from="4045329#5" to="130160207#0"/>
    <trip id="270" depart="268.00" from="319261593#12" to="4045332#0"/>
    <trip id="271" depart="269.00" from="-41910185#2" to="-4045330"/>
    <trip id="272" depart="269.00" from="-241660955#17" to="31800061#0"/>
    <trip id="273" depart="270.00" from="-130160207#0" to="4145590#0"/>
    <trip id="274" depart="271.00" from="4045329#5" to="241660955#17"/>
    <trip id="275" depart="273.00" from="-241660955#17" to="-31864804"/>
    <trip id="277" depart="274.00" from="4045330" to="4145590#0"/>
    <trip id="278" depart="274.00" from="-41910185#2" to="-241660955#9"/>
    <trip id="279" depart="274.00" from="31864804" to="4145590#0"/>
    <trip id="281" depart="275.00" from="41910186" to="4145590#0"/>
    <trip id="283" depart="276.00" from="-241660955#17" to="4045332#0"/>
    <trip id="284" depart="276.00" from="31864804" to="241660955#13"/>
    <trip id="285" depart="277.00" from="200818108#0" to="4145590#0"/>
    <trip id="287" depart="279.00" from="41910184" to="31800061#0"/>
    <trip id="288" depart="281.00" from="319261593#12" to="130160207#0"/>
    <trip id="289" depart="281.00" from="241660957#0" to="-41910184"/>
    <trip id="290" depart="283.00" from="-41910185#2" to="-31864804"/>
    <trip id="291" depart="284.00" from="4999334" to="130160207#0"/>
    <trip id="293" depart="289.00" from="4999334" to="4999331#0"/>
    <trip id="295" depart="290.00" from="-41910185#2" to="130160207#0"/>
    <trip id="298" depart="291.00" from="319261593#12" to="-4999334"/>
    <trip id="299" depart="291.00" from="241660957#0" to="-31864804"/>
    <trip id="300" depart="292.00" from="-241660955#13" to="4145590#0"/>
    <trip id="301" depart="292.00" from="-5229966#3" to="241660955#17"/>
    <trip id="302" depart="295.00" from="241660957#0" to="4145589#0"/>
    <trip id="303" depart="296.00" from="41910184" to="-4045330"/>
    <trip id="305" depart="299.00" from="-241660955#5" to="4999331#0"/>
    <trip id="306" depart="299.00" from="241660957#0" to="4999331#0"/>
    <trip id="307" depart="300.00" from="319261593#12" to="319261593#16"/>
    <trip id="309" depart="300.00" from="41910186" to="41910185#0"/>
    <trip id="311" depart="303.00" from="-241660955#12" to="4145590#0"/>
    <trip id="312" depart="306.00" from="4045329#5" to="-4045330"/>
    <trip id="314" depart="307.00" from="-241660955#17" to="4145590#0"/>
    <trip id="315" depart="308.00" from="-241660955#17" to="-4045330"/>
    <trip id="316" depart="309.00" from="319261593#16" to="130160207#0"/>
    <trip id="317" depart="309.00" from="-130160207#0" to="-41910186"/>
    <trip id="318" depart="310.00" from="-241660955#17" to="-241660955#3"/>
    <trip id="319" depart="311.00" from="200818108#0" to="4145590#0"/>
    <trip id="320" depart="312.00" from="41910184" to="31800061#0"/>
    <trip id="321" depart="313.00" from="31864804" to="241660955#7"/>
    <trip id="322" depart="314.00" from="-241660955#17" to="4045332#0"/>
    <trip id="324" depart="315.00" from="-130160207#0" to="4999331#0"/>
    <trip id="325" depart="315.00" from="241660955#7" to="241660955#7"/>
    <trip id="326" depart="316.00" from="241660957#0" to="-31864804"/>
    <trip id="327" depart="316.00" from="200818108#0" to="241660955#4"/>
    <trip id="328" depart="316.00" from="241660957#0" to="-41910184"/>
    <trip id="329" depart="321.00" from="241660957#0" to="4045332#0"/>
    <trip id="330" depart="324.00" from="41910186" to="-4045330"/>
    <trip id="331" depart="324.00" from="31864804" to="241660955#17"/>
    <trip id="332" depart="326.00" from="-130160207#0" to="-31864804"/>
    <trip id="334" depart="328.00" from="319261593#12" to="4145589#0"/>
    <trip id="335" depart="329.00" from="41910186" to="4145589#0"/>
    <trip id="336" depart="330.00" from="-241660955#17" to="4999331#0"/>
    <trip id="337" depart="332.00" from="-31800061#0" to="4145590#0"/>
    <trip id="338" depart="333.00" from="241660955#7" to="-41910184"/>
    <trip id="340" depart="339.00" from="4045329#5" to="-41910184"/>
    <trip id="341" depart="340.00" from="241660957#0" to="-41910186"/>
    <trip id="342" depart="340.00" from="-41910185#2" to="4145590#0"/>
    <trip id="343" depart="341.00" from="-41910185#2" to="4145590#0"/>
    <trip id="344" depart="341.00" from="41910184" to="41910185#0"/>
    <trip id="346" depart="344.00" from="-5229966#3" to="-200818108#1"/>
    <trip id="347" depart="345.00" from="-5229966#3" to="4045332#0"/>
    <trip id="348" depart="345.00" from="4999334" to="241660955#14"/>
    <trip id="350" depart="349.00" from="241660955#14" to="241660955#17"/>
    <trip id="352" depart="350.00" from="4045329#5" to="4145589#0"/>
    <trip id="353" depart="351.00" from="4045329#5" to="4145589#0"/>
    <trip id="354" depart="351.00" from="41910186" to="4145590#0"/>
    <trip id="355" depart="352.00" from="31864804" to="241660955#17"/>
    <trip id="356" depart="352.00" from="41910186" to="4999331#0"/>
    <trip id="357" depart="354.00" from="-241660955#17" to="4145590#0"/>
    <trip id="358" depart="357.00" from="241660957#0" to="-31864804"/>
    <trip id="359" depart="357.00" from="241660957#0" to="41910185#0"/>
    <trip id="360" depart="358.00" from="31864804" to="31800061#0"/>
    <trip id="361" depart="359.00" from="-241660955#17" to="-41910184"/>
    <trip id="362" depart="361.00" from="-241660955#17" to="-31864804"/>
    <trip id="363" depart="361.00" from="4999334" to="-31864804"/>
    <trip id="364" depart="362.00" from="-241660955#17" to="4045332#0"/>
    <trip id="365" depart="362.00" from="-241660955#17" to="-41910184"/>
    <trip id="366" depart="362.00" from="-31800061#0" to="-4045329#5"/>
    <trip id="367" depart="363.00" from="31864804" to="4145589#0"/>
    <trip id="368" depart="364.00" from="-241660955#16" to="-241660955#12"/>
    <trip id="370" depart="368.00" from="319261593#12" to="4145590#0"/>
    <trip id="371" depart="368.00" from="-41910185#2" to="130160207#0"/>
    <trip id="373" depart="368.00" from="41910184" to="31800061#0"/>
    <trip id="374" depart="371.00" from="-241660955#17" to="-31864804"/>
    <trip id="376" depart="372.00" from="-130160207#0" to="4999331#0"/>
    <trip id="377" depart="374.00" from="4045329#5" to="-4999334"/>
    <trip id="378" depart="374.00" from="-241660955#17" to="4145589#0"/>
    <trip id="379" depart="376.00" from="-31800061#0" to="-4045329#5"/>
    <trip id="380" depart="377.00" from="4045330" to="-241660955#9"/>
    <trip id="382" depart="378.00" from="-241660955#16" to="-31864804"/>
    <trip id="383" depart="381.00" from="-241660955#17" to="4145589#0"/>
    <trip id="384" depart="381.00" from="-241660955#17" to="4145590#0"/>
    <trip id="385" depart="382.00" from="41910184" to="4999331#0"/>
    <trip id="386" depart="382.00" from="241660957#0" to="241660955#17"/>
    <trip id="387" depart="384.00" from="241660957#0" to="41910185#0"/>
    <trip id="388" depart="384.00" from="319261593#12" to="130160207#0"/>
    <trip id="390" depart="387.00" from="4999334" to="130160207#0"/>
    <trip id="391" depart="388.00" from="319261593#12" to="-41910184"/>
    <trip id="392" depart="388.00" from="-241660955#17" to="4145590#0"/>
    <trip id="393" depart="389.00" from="319261593#12" to="4145590#0"/>
    <trip id="394" depart="389.00" from="41910184" to="-241660955#6"/>
    <trip id="396" depart="391.00" from="4045330" to="4045332#0"/>
    <trip id="397" depart="391.00" from="241660957#0" to="4999331#0"/>
    <trip id="398" depart="392.00" from="41910186" to="31800061#0"/>
    <trip id="399" depart="392.00" from="-41910185#2" to="31800061#0"/>
    <trip id="400" depart="392.00" from="319261593#12" to="31800061#0"/>
    <trip id="401" depart="394.00" from="4999334" to="-241660955#5"/>
    <trip id="402" depart="395.00" from="319261593#12" to="4045332#0"/>
    <trip id="403" depart="396.00" from="4045330" to="-4045329#5"/>
    <trip id="404" depart="396.00" from="41910184" to="4999331#0"/>
    <trip id="405" depart="399.00" from="4045329#5" to="-31864804"/>
    <trip id="407" depart="401.00" from="4045330" to="4145590#0"/>
    <trip id="408" depart="401.00" from="31864804" to="-41910184"/>
    <trip id="409" depart="401.00" from="-241660955#17" to="-4045330"/>
    <trip id="410" depart="401.00" from="31864804" to="-41910184"/>
    <trip id="411" depart="401.00" from="4045329#5" to="-41910186"/>
    <trip id="413" depart="404.00" from="-130160207#0" to="-31864804"/>
    <trip id="414" depart="404.00" from="41910184" to="241660955#17"/>
    <trip id="415" depart="406.00" from="-5229966#3" to="130160207#0"/>
    <trip id="416" depart="406.00" from="241660957#0" to="130160207#0"/>
    <trip id="417" depart="407.00" from="319261593#12" to="31800061#0"/>
    <trip id="418" depart="408.00" from="241660955#4" to="-4999334"/>
    <trip id="420" depart="409.00" from="31864804" to="31800061#0"/>
    <trip id="421" depart="412.00" from="319261593#12" to="-4045330"/>
    <trip id="422" depart="413.00" from="4045330" to="-4999334"/>
    <trip id="423" depart="414.00" from="4999334" to="241660955#17"/>
    <trip id="424" depart="415.00" from="4045329#5" to="-4999334"/>
    <trip id="425" depart="420.00" from="-5229966#3" to="241660955#17"/>
    <trip id="426" depart="421.00" from="-31800061#0" to="4145590#0"/>
    <trip id="427" depart="422.00" from="41910184" to="-4045330"/>
    <trip id="428" depart="422.00" from="-241660955#3" to="4145590#0"/>
    <trip id="429" depart="423.00" from="241660955#0" to="41910185#0"/>
    <trip id="432" depart="425.00" from="-41910185#2" to="4045332#0"/>
    <trip id="433" depart="425.00" from="31864804" to="-4999334"/>
    <trip id="435" depart="429.00" from="241660955#6" to="-4045329#5"/>
    <trip id="436" depart="431.00" from="319261593#12" to="41910185#0"/>
    <trip id="437" depart="432.00" from="-241660955#16" to="4145589#0"/>
    <trip id="438" depart="432.00" from="-241660955#12" to="-31864804"/>
    <trip id="439" depart="433.00" from="319261593#12" to="-41910184"/>
    <trip id="440" depart="433.00" from="4045330" to="-31864804"/>
    <trip id="441" depart="434.00" from="-41910185#2" to="-241660955#9"/>
    <trip id="442" depart="434.00" from="31864804" to="4145590#0"/>
    <trip id="443" depart="436.00" from="241660957#0" to="-41910184"/>
    <trip id="444" depart="436.00" from="241660957#0" to="4045332#0"/>
    <trip id="445" depart="438.00" from="4045330" to="-31864804"/>
    <trip id="447" depart="441.00" from="41910186" to="-241660955#3"/>
    <trip id="448" depart="443.00" from="241660955#4" to="4145589#0"/>
    <trip id="449" depart="445.00" from="-241660955#17" to="4999331#0"/>
    <trip id="450" depart="445.00" from="41910186" to="130160207#0"/>
    <trip id="451" depart="448.00" from="-130160207#0" to="-41910184"/>
    <trip id="452" depart="451.00" from="4999334" to="31800061#0"/>
    <trip id="453" depart="453.00" from="31864804" to="-41910186"/>
    <trip id="454" depart="454.00" from="4999334" to="-31864804"/>
    <trip id="457" depart="455.00" from="-130160207#0" to="-241660955#3"/>
    <trip id="458" depart="456.00" from="241660957#0" to="4999331#0"/>
    <trip id="461" depart="457.00" from="41910186" to="241660955#17"/>
    <trip id="463" depart="458.00" from="319261593#12" to="-200818108#1"/>
    <trip id="464" depart="459.00" from="4999334" to="130160207#0"/>
    <trip id="466" depart="461.00" from="-5229966#3" to="4145589#0"/>
    <trip id="467" depart="461.00" from="-241660955#6" to="4999331#0"/>
    <trip id="469" depart="464.00" from="319261593#15" to="31800061#0"/>
    <trip id="470" depart="468.00" from="-241660955#16" to="4145590#0"/>
    <trip id="471" depart="471.00" from="4999334" to="4145589#0"/>
    <trip id="472" depart="471.00" from="-41910185#2" to="4145590#0"/>
    <trip id="474" depart="474.00" from="241660957#0" to="-4045329#5"/>
    <trip id="475" depart="477.00" from="-31800061#0" to="4145590#0"/>
    <trip id="476" depart="478.00" from="-241660955#17" to="-31864804"/>
    <trip id="477" depart="478.00" from="4999334" to="4145590#0"/>
    <trip id="478" depart="478.00" from="319261593#12" to="-31864804"/>
    <trip id="479" depart="479.00" from="41910184" to="-31864804"/>
    <trip id="481" depart="480.00" from="-241660955#17" to="130160207#0"/>
    <trip id="482" depart="481.00" from="-41910185#2" to="241660955#10"/>
    <trip id="483" depart="481.00" from="41910184" to="-241660955#12"/>
    <trip id="484" depart="482.00" from="319261593#12" to="-200818108#1"/>
    <trip id="485" depart="485.00" from="-241660955#17" to="4145590#0"/>
    <trip id="486" depart="485.00" from="-241660955#13" to="-41910184"/>
    <trip id="487" depart="486.00" from="-31800061#0" to="241660955#11"/>
    <trip id="488" depart="486.00" from="-241660955#17" to="130160207#0"/>
    <trip id="489" depart="487.00" from="319261593#12" to="241660955#17"/>
    <trip id="490" depart="488.00" from="-5229966#3" to="-31864804"/>
    <trip id="491" depart="489.00" from="-5229966#3" to="-4045330"/>
    <trip id="492" depart="489.00" from="-31800061#0" to="-41910184"/>
    <trip id="493" depart="489.00" from="-5229966#3" to="-200818108#1"/>
    <trip id="494" depart="489.00" from="-241660955#9" to="4999331#0"/>
    <trip id="495" depart="496.00" from="-130160207#0" to="4145590#0"/>
    <trip id="496" depart="497.00" from="-241660955#10" to="-4045329#5"/>
    <trip id="497" depart="498.00" from="241660957#0" to="-41910184"/>
    <trip id="499" depart="500.00" from="4999334" to="41910185#0"/>
    <trip id="500" depart="501.00" from="31864804" to="241660955#10"/>