<additional xmlns:xsi="http://www.w3.org/2001/XMLSchema-instance" xsi:noNamespaceSchemaLocation="http://sumo.dlr.de/xsd/additional_file.xsd">
    <laneAreaDetector file="e2output.xml" freq="60" friendlyPos="x" id="e2det_104010354_1" lane="104010354_1" length="35" pos="21.309999999999995"/>
    <laneAreaDetector file="e2output.xml" freq="60" friendlyPos="x" id="e2det_104010354_2" lane="104010354_2" length="35" pos="21.309999999999995"/>
    <laneAreaDetector file="e2output.xml" freq="60" friendlyPos="x" id="e2det_164051413_1" lane="164051413_1" length="8.83" pos="0"/>
    <laneAreaDetector file="e2output.xml" freq="60" friendlyPos="x" id="e2det_164051413_2" lane="164051413_2" length="8.83" pos="0"/>
    <laneAreaDetector file="e2output.xml" freq="60" friendlyPos="x" id="e2det_201963537#1_1" lane="201963537#1_1" length="35" pos="108.66"/>
    <laneAreaDetector file="e2output.xml" freq="60" friendlyPos="x" id="e2det_201963537#1_2" lane="201963537#1_2" length="35" pos="108.66"/>
    <laneAreaDetector file="e2output.xml" freq="60" friendlyPos="x" id="e2det_201963537#1_3" lane="201963537#1_3" length="35" pos="108.66"/>
</additional>
