<?xml version="1.0" encoding="UTF-8"?>

<!-- generated on 2023-09-20 14:22:44.483212 by randomTrips.py v1_18_0+0000-03ecfdea036
<configuration>
    <net-file value="nets/ingolstadt1/ingolstadt1.net.xml"/>
    <output-trip-file value="nets/ingolstadt1/ingolstadt1_train.rou.xml"/>
    <lanes value="True"/>
    <fringe-factor value="max"/>
    <random value="True"/>
    <min-distance value="50.0"/>
    <validate value="True"/>
    <end value="86400.0"/>
    <insertion-rate value="100.0 200.0 300.0 400.0 500.0 600.0 700.0 800.0 900.0 1000.0 1100.0 1200.0 1300.0 1400.0 1500.0 1600.0 1700.0 1800.0 1900.0 2000.0 2100.0 2200.0 2300.0 2400.0"/>
    <random-depart value="True"/>
    <duarouter-remove-loops value="true"/>
</configuration>
-->

<!-- generated on 2023-09-20 14:22:43 by Eclipse SUMO duarouter Version 1.18.0
<configuration xmlns:xsi="http://www.w3.org/2001/XMLSchema-instance" xsi:noNamespaceSchemaLocation="http://sumo.dlr.de/xsd/duarouterConfiguration.xsd">

    <input>
        <net-file value="nets/ingolstadt1/ingolstadt1.net.xml"/>
        <route-files value="nets/ingolstadt1/ingolstadt1_train.rou.xml"/>
    </input>

    <output>
        <output-file value="nets/ingolstadt1/ingolstadt1_train.rou.xml.tmp"/>
        <alternatives-output value="NUL"/>
        <write-trips value="true"/>
    </output>

    <processing>
        <remove-loops value="true"/>
    </processing>

    <time>
        <begin value="0"/>
        <end value="86400.0"/>
    </time>

    <report>
        <no-warnings value="true"/>
        <ignore-errors value="true"/>
        <no-step-log value="true"/>
    </report>

</configuration>
-->

<routes xmlns:xsi="http://www.w3.org/2001/XMLSchema-instance" xsi:noNamespaceSchemaLocation="http://sumo.dlr.de/xsd/routes_file.xsd">
    <trip id="0" depart="3.00" from="653473569#5" to="104012170"/>
    <trip id="1" depart="9.00" from="653473569#5" to="124812857#0"/>
    <trip id="2" depart="14.00" from="201963537#1" to="-653473569#5"/>
    <trip id="4" depart="50.00" from="201963537#1" to="-653473569#5"/>
    <trip id="5" depart="74.00" from="104010354" to="124812857#0"/>
    <trip id="6" depart="81.00" from="653473569#5" to="124812857#0"/>
    <trip id="8" depart="154.00" from="104010354" to="-653473569#5"/>
    <trip id="9" depart="184.00" from="104010354" to="124812857#0"/>
    <trip id="10" depart="244.00" from="201963537#1" to="-653473569#5"/>
    <trip id="11" depart="263.00" from="653473569#5" to="124812857#0"/>
    <trip id="12" depart="330.00" from="25149219#1" to="-653473569#5"/>
    <trip id="13" depart="367.00" from="25149219#1" to="-653473569#5"/>
    <trip id="15" depart="691.00" from="104010354" to="124812857#0"/>
    <trip id="16" depart="709.00" from="201963537#1" to="104012170"/>
    <trip id="17" depart="710.00" from="201963537#1" to="-653473569#5"/>
    <trip id="19" depart="739.00" from="653473569#5" to="104012170"/>
    <trip id="20" depart="753.00" from="201963537#1" to="104012170"/>
    <trip id="21" depart="779.00" from="201963537#1" to="-653473569#5"/>
    <trip id="22" depart="857.00" from="104010354" to="124812857#0"/>
    <trip id="23" depart="946.00" from="653473569#5" to="104012170"/>
    <trip id="24" depart="953.00" from="653473569#5" to="124812857#0"/>
    <trip id="25" depart="961.00" from="653473569#5" to="124812857#0"/>
    <trip id="26" depart="1003.00" from="25149219#1" to="104012170"/>
    <trip id="27" depart="1022.00" from="201963537#1" to="104012170"/>
    <trip id="32" depart="1127.00" from="104010354" to="124812857#0"/>
    <trip id="33" depart="1214.00" from="201963537#1" to="104012170"/>
    <trip id="34" depart="1239.00" from="201963537#1" to="-653473569#5"/>
    <trip id="35" depart="1240.00" from="104010354" to="124812857#0"/>
    <trip id="36" depart="1252.00" from="104010354" to="124812857#0"/>
    <trip id="37" depart="1256.00" from="201963537#1" to="104012170"/>
    <trip id="39" depart="1299.00" from="201963537#1" to="104012170"/>
    <trip id="40" depart="1334.00" from="653473569#5" to="104012170"/>
    <trip id="41" depart="1399.00" from="653473569#5" to="104012170"/>
    <trip id="42" depart="1405.00" from="201963537#1" to="-653473569#5"/>
    <trip id="43" depart="1437.00" from="25149219#1" to="104012170"/>
    <trip id="44" depart="1458.00" from="653473569#5" to="104012170"/>
    <trip id="45" depart="1462.00" from="104010354" to="124812857#0"/>
    <trip id="46" depart="1477.00" from="201963537#1" to="104012170"/>
    <trip id="47" depart="1508.00" from="104010354" to="124812857#0"/>
    <trip id="48" depart="1541.00" from="653473569#5" to="104012170"/>
    <trip id="49" depart="1598.00" from="201963537#1" to="-653473569#5"/>
    <trip id="51" depart="1661.00" from="201963537#1" to="104012170"/>
    <trip id="52" depart="1668.00" from="25149219#1" to="-653473569#5"/>
    <trip id="53" depart="1733.00" from="201963537#1" to="-653473569#5"/>
    <trip id="54" depart="1752.00" from="653473569#5" to="104012170"/>
    <trip id="55" depart="1762.00" from="653473569#5" to="124812857#0"/>
    <trip id="56" depart="1766.00" from="104010354" to="124812857#0"/>
    <trip id="57" depart="1850.00" from="201963537#1" to="104012170"/>
    <trip id="58" depart="1946.00" from="25149219#1" to="-653473569#5"/>
    <trip id="59" depart="2004.00" from="201963537#1" to="104012170"/>
    <trip id="62" depart="2068.00" from="653473569#5" to="104012170"/>
    <trip id="63" depart="2109.00" from="201963537#1" to="104012170"/>
    <trip id="64" depart="2114.00" from="653473569#5" to="124812857#0"/>
    <trip id="65" depart="2161.00" from="653473569#5" to="104012170"/>
    <trip id="66" depart="2241.00" from="653473569#5" to="124812857#0"/>
    <trip id="67" depart="2257.00" from="653473569#5" to="104012170"/>
    <trip id="70" depart="2299.00" from="104010354" to="124812857#0"/>
    <trip id="71" depart="2307.00" from="104010354" to="124812857#0"/>
    <trip id="72" depart="2357.00" from="25149219#1" to="-653473569#5"/>
    <trip id="73" depart="2416.00" from="653473569#5" to="104012170"/>
    <trip id="74" depart="2430.00" from="653473569#5" to="104012170"/>
    <trip id="75" depart="2431.00" from="201963537#1" to="104012170"/>
    <trip id="76" depart="2438.00" from="653473569#5" to="124812857#0"/>
    <trip id="77" depart="2490.00" from="653473569#5" to="124812857#0"/>
    <trip id="78" depart="2523.00" from="201963537#1" to="-653473569#5"/>
    <trip id="80" depart="2545.00" from="25149219#1" to="104012170"/>
    <trip id="82" depart="2617.00" from="201963537#1" to="104012170"/>
    <trip id="83" depart="2661.00" from="201963537#1" to="-653473569#5"/>
    <trip id="84" depart="2735.00" from="653473569#5" to="104012170"/>
    <trip id="86" depart="2826.00" from="653473569#5" to="104012170"/>
    <trip id="87" depart="2888.00" from="25149219#1" to="-653473569#5"/>
    <trip id="88" depart="2894.00" from="653473569#5" to="104012170"/>
    <trip id="89" depart="2976.00" from="201963537#1" to="-653473569#5"/>
    <trip id="90" depart="2995.00" from="201963537#1" to="104012170"/>
    <trip id="91" depart="3027.00" from="25149219#1" to="104012170"/>
    <trip id="92" depart="3083.00" from="653473569#5" to="104012170"/>
    <trip id="93" depart="3083.00" from="25149219#1" to="104012170"/>
    <trip id="94" depart="3128.00" from="653473569#5" to="104012170"/>
    <trip id="95" depart="3336.00" from="104010354" to="-653473569#5"/>
    <trip id="97" depart="3417.00" from="104010354" to="124812857#0"/>
    <trip id="98" depart="3536.00" from="653473569#5" to="124812857#0"/>
    <trip id="99" depart="3544.00" from="104010354" to="-653473569#5"/>
    <trip id="100" depart="3630.00" from="653473569#5" to="104012170"/>
    <trip id="101" depart="3637.00" from="201963537#1" to="-653473569#5"/>
    <trip id="102" depart="3641.00" from="653473569#5" to="124812857#0"/>
    <trip id="103" depart="3669.00" from="104010354" to="-653473569#5"/>
    <trip id="104" depart="3672.00" from="653473569#5" to="104012170"/>
    <trip id="106" depart="3673.00" from="201963537#1" to="-653473569#5"/>
    <trip id="107" depart="3681.00" from="201963537#1" to="104012170"/>
    <trip id="109" depart="3699.00" from="25149219#1" to="104012170"/>
    <trip id="110" depart="3711.00" from="653473569#5" to="104012170"/>
    <trip id="111" depart="3727.00" from="653473569#5" to="104012170"/>
    <trip id="112" depart="3733.00" from="104010354" to="-653473569#5"/>
    <trip id="113" depart="3754.00" from="653473569#5" to="104012170"/>
    <trip id="114" depart="3759.00" from="653473569#5" to="104012170"/>
    <trip id="115" depart="3761.00" from="201963537#1" to="104012170"/>
    <trip id="116" depart="3766.00" from="104010354" to="124812857#0"/>
    <trip id="117" depart="3773.00" from="104010354" to="124812857#0"/>
    <trip id="121" depart="3855.00" from="653473569#5" to="124812857#0"/>
    <trip id="122" depart="3874.00" from="201963537#1" to="-653473569#5"/>
    <trip id="123" depart="3901.00" from="653473569#5" to="124812857#0"/>
    <trip id="124" depart="3902.00" from="653473569#5" to="124812857#0"/>
    <trip id="125" depart="3943.00" from="201963537#1" to="-653473569#5"/>
    <trip id="126" depart="3946.00" from="653473569#5" to="104012170"/>
    <trip id="127" depart="3948.00" from="25149219#1" to="104012170"/>
    <trip id="128" depart="3951.00" from="25149219#1" to="104012170"/>
    <trip id="129" depart="3999.00" from="653473569#5" to="124812857#0"/>
    <trip id="130" depart="4000.00" from="653473569#5" to="124812857#0"/>
    <trip id="133" depart="4052.00" from="653473569#5" to="124812857#0"/>
    <trip id="134" depart="4069.00" from="201963537#1" to="104012170"/>
    <trip id="135" depart="4082.00" from="104010354" to="124812857#0"/>
    <trip id="136" depart="4092.00" from="653473569#5" to="104012170"/>
    <trip id="138" depart="4094.00" from="25149219#1" to="104012170"/>
    <trip id="140" depart="4168.00" from="201963537#1" to="104012170"/>
    <trip id="143" depart="4191.00" from="25149219#1" to="104012170"/>
    <trip id="144" depart="4218.00" from="25149219#1" to="104012170"/>
    <trip id="145" depart="4224.00" from="201963537#1" to="104012170"/>
    <trip id="146" depart="4258.00" from="201963537#1" to="104012170"/>
    <trip id="147" depart="4266.00" from="104010354" to="124812857#0"/>
    <trip id="148" depart="4314.00" from="653473569#5" to="124812857#0"/>
    <trip id="149" depart="4340.00" from="653473569#5" to="124812857#0"/>
    <trip id="150" depart="4459.00" from="653473569#5" to="124812857#0"/>
    <trip id="151" depart="4464.00" from="201963537#1" to="104012170"/>
    <trip id="153" depart="4482.00" from="25149219#1" to="-653473569#5"/>
    <trip id="156" depart="4517.00" from="104010354" to="124812857#0"/>
    <trip id="157" depart="4528.00" from="653473569#5" to="124812857#0"/>
    <trip id="158" depart="4528.00" from="653473569#5" to="124812857#0"/>
    <trip id="159" depart="4543.00" from="25149219#1" to="-653473569#5"/>
    <trip id="160" depart="4551.00" from="25149219#1" to="104012170"/>
    <trip id="161" depart="4601.00" from="201963537#1" to="104012170"/>
    <trip id="162" depart="4613.00" from="653473569#5" to="124812857#0"/>
    <trip id="163" depart="4619.00" from="104010354" to="124812857#0"/>
    <trip id="164" depart="4649.00" from="201963537#1" to="104012170"/>
    <trip id="165" depart="4765.00" from="201963537#1" to="-653473569#5"/>
    <trip id="166" depart="4775.00" from="653473569#5" to="124812857#0"/>
    <trip id="168" depart="4822.00" from="653473569#5" to="124812857#0"/>
    <trip id="169" depart="4851.00" from="104010354" to="124812857#0"/>
    <trip id="170" depart="4858.00" from="201963537#1" to="-653473569#5"/>
    <trip id="171" depart="4862.00" from="201963537#1" to="104012170"/>
    <trip id="172" depart="4862.00" from="104010354" to="124812857#0"/>
    <trip id="173" depart="4887.00" from="653473569#5" to="104012170"/>
    <trip id="174" depart="4901.00" from="25149219#1" to="-653473569#5"/>
    <trip id="175" depart="4904.00" from="104010354" to="124812857#0"/>
    <trip id="176" depart="4914.00" from="201963537#1" to="-653473569#5"/>
    <trip id="177" depart="4942.00" from="653473569#5" to="104012170"/>
    <trip id="178" depart="4951.00" from="653473569#5" to="124812857#0"/>
    <trip id="179" depart="4983.00" from="104010354" to="124812857#0"/>
    <trip id="180" depart="4988.00" from="25149219#1" to="104012170"/>
    <trip id="181" depart="5054.00" from="653473569#5" to="104012170"/>
    <trip id="182" depart="5076.00" from="653473569#5" to="124812857#0"/>
    <trip id="183" depart="5111.00" from="653473569#5" to="124812857#0"/>
    <trip id="184" depart="5155.00" from="25149219#1" to="104012170"/>
    <trip id="185" depart="5160.00" from="104010354" to="124812857#0"/>
    <trip id="187" depart="5204.00" from="653473569#5" to="104012170"/>
    <trip id="188" depart="5227.00" from="201963537#1" to="104012170"/>
    <trip id="189" depart="5244.00" from="201963537#1" to="104012170"/>
    <trip id="190" depart="5247.00" from="653473569#5" to="124812857#0"/>
    <trip id="191" depart="5276.00" from="25149219#1" to="104012170"/>
    <trip id="193" depart="5297.00" from="104010354" to="124812857#0"/>
    <trip id="196" depart="5380.00" from="25149219#1" to="104012170"/>
    <trip id="197" depart="5385.00" from="25149219#1" to="-653473569#5"/>
    <trip id="198" depart="5393.00" from="201963537#1" to="104012170"/>
    <trip id="200" depart="5476.00" from="653473569#5" to="104012170"/>
    <trip id="201" depart="5486.00" from="25149219#1" to="-653473569#5"/>
    <trip id="202" depart="5489.00" from="104010354" to="124812857#0"/>
    <trip id="203" depart="5512.00" from="104010354" to="124812857#0"/>
    <trip id="204" depart="5515.00" from="653473569#5" to="124812857#0"/>
    <trip id="206" depart="5538.00" from="25149219#1" to="104012170"/>
    <trip id="207" depart="5549.00" from="201963537#1" to="104012170"/>
    <trip id="208" depart="5589.00" from="25149219#1" to="104012170"/>
    <trip id="209" depart="5590.00" from="25149219#1" to="104012170"/>
    <trip id="210" depart="5590.00" from="104010354" to="124812857#0"/>
    <trip id="212" depart="5627.00" from="201963537#1" to="104012170"/>
    <trip id="213" depart="5629.00" from="201963537#1" to="104012170"/>
    <trip id="215" depart="5653.00" from="201963537#1" to="104012170"/>
    <trip id="216" depart="5710.00" from="653473569#5" to="124812857#0"/>
    <trip id="217" depart="5711.00" from="201963537#1" to="-653473569#5"/>
    <trip id="219" depart="5786.00" from="201963537#1" to="-653473569#5"/>
    <trip id="220" depart="5792.00" from="653473569#5" to="104012170"/>
    <trip id="221" depart="5795.00" from="25149219#1" to="104012170"/>
    <trip id="223" depart="5842.00" from="653473569#5" to="104012170"/>
    <trip id="224" depart="5863.00" from="201963537#1" to="-653473569#5"/>
    <trip id="225" depart="5917.00" from="653473569#5" to="104012170"/>
    <trip id="226" depart="5918.00" from="104010354" to="-653473569#5"/>
    <trip id="227" depart="5924.00" from="201963537#1" to="104012170"/>
    <trip id="230" depart="5956.00" from="25149219#1" to="104012170"/>
    <trip id="231" depart="5981.00" from="104010354" to="-653473569#5"/>
    <trip id="232" depart="5988.00" from="653473569#5" to="104012170"/>
    <trip id="233" depart="6005.00" from="25149219#1" to="104012170"/>
    <trip id="234" depart="6010.00" from="653473569#5" to="124812857#0"/>
    <trip id="235" depart="6051.00" from="653473569#5" to="124812857#0"/>
    <trip id="238" depart="6125.00" from="653473569#5" to="124812857#0"/>
    <trip id="239" depart="6132.00" from="653473569#5" to="124812857#0"/>
    <trip id="241" depart="6212.00" from="104010354" to="124812857#0"/>
    <trip id="242" depart="6214.00" from="104010354" to="124812857#0"/>
    <trip id="243" depart="6219.00" from="201963537#1" to="104012170"/>
    <trip id="244" depart="6219.00" from="201963537#1" to="104012170"/>
    <trip id="245" depart="6228.00" from="201963537#1" to="-653473569#5"/>
    <trip id="247" depart="6266.00" from="104010354" to="124812857#0"/>
    <trip id="248" depart="6290.00" from="201963537#1" to="104012170"/>
    <trip id="249" depart="6311.00" from="653473569#5" to="104012170"/>
    <trip id="251" depart="6317.00" from="25149219#1" to="104012170"/>
    <trip id="252" depart="6319.00" from="104010354" to="-653473569#5"/>
    <trip id="253" depart="6320.00" from="653473569#5" to="104012170"/>
    <trip id="254" depart="6322.00" from="104010354" to="-653473569#5"/>
    <trip id="255" depart="6361.00" from="25149219#1" to="-653473569#5"/>
    <trip id="256" depart="6361.00" from="201963537#1" to="104012170"/>
    <trip id="258" depart="6392.00" from="104010354" to="-653473569#5"/>
    <trip id="259" depart="6397.00" from="104010354" to="-653473569#5"/>
    <trip id="260" depart="6416.00" from="201963537#1" to="104012170"/>
    <trip id="261" depart="6421.00" from="201963537#1" to="104012170"/>
    <trip id="262" depart="6484.00" from="25149219#1" to="104012170"/>
    <trip id="263" depart="6486.00" from="201963537#1" to="-653473569#5"/>
    <trip id="264" depart="6488.00" from="653473569#5" to="104012170"/>
    <trip id="265" depart="6490.00" from="25149219#1" to="-653473569#5"/>
    <trip id="266" depart="6496.00" from="104010354" to="-653473569#5"/>
    <trip id="267" depart="6504.00" from="201963537#1" to="-653473569#5"/>
    <trip id="268" depart="6523.00" from="201963537#1" to="104012170"/>
    <trip id="269" depart="6525.00" from="653473569#5" to="124812857#0"/>
    <trip id="270" depart="6554.00" from="201963537#1" to="104012170"/>
    <trip id="271" depart="6561.00" from="201963537#1" to="104012170"/>
    <trip id="272" depart="6566.00" from="104010354" to="-653473569#5"/>
    <trip id="273" depart="6593.00" from="25149219#1" to="104012170"/>
    <trip id="274" depart="6623.00" from="25149219#1" to="-653473569#5"/>
    <trip id="275" depart="6625.00" from="653473569#5" to="124812857#0"/>
    <trip id="277" depart="6676.00" from="104010354" to="124812857#0"/>
    <trip id="278" depart="6697.00" from="653473569#5" to="124812857#0"/>
    <trip id="279" depart="6729.00" from="25149219#1" to="104012170"/>
    <trip id="280" depart="6736.00" from="25149219#1" to="104012170"/>
    <trip id="281" depart="6736.00" from="201963537#1" to="104012170"/>
    <trip id="282" depart="6740.00" from="104010354" to="124812857#0"/>
    <trip id="283" depart="6822.00" from="201963537#1" to="104012170"/>
    <trip id="284" depart="6834.00" from="201963537#1" to="104012170"/>
    <trip id="285" depart="6836.00" from="653473569#5" to="104012170"/>
    <trip id="286" depart="6843.00" from="201963537#1" to="104012170"/>
    <trip id="287" depart="6849.00" from="104010354" to="-653473569#5"/>
    <trip id="288" depart="6867.00" from="25149219#1" to="104012170"/>
    <trip id="289" depart="6873.00" from="653473569#5" to="104012170"/>
    <trip id="290" depart="6888.00" from="201963537#1" to="-653473569#5"/>
    <trip id="291" depart="6904.00" from="201963537#1" to="104012170"/>
    <trip id="292" depart="6933.00" from="104010354" to="124812857#0"/>
    <trip id="293" depart="6946.00" from="653473569#5" to="104012170"/>
    <trip id="294" depart="7003.00" from="25149219#1" to="104012170"/>
    <trip id="295" depart="7069.00" from="104010354" to="124812857#0"/>
    <trip id="296" depart="7119.00" from="653473569#5" to="104012170"/>
    <trip id="298" depart="7178.00" from="201963537#1" to="-653473569#5"/>
    <trip id="299" depart="7198.00" from="104010354" to="124812857#0"/>
    <trip id="300" depart="7203.00" from="201963537#1" to="104012170"/>
    <trip id="303" depart="7293.00" from="25149219#1" to="104012170"/>
    <trip id="304" depart="7296.00" from="104010354" to="124812857#0"/>
    <trip id="305" depart="7312.00" from="201963537#1" to="104012170"/>
    <trip id="306" depart="7335.00" from="104010354" to="124812857#0"/>
    <trip id="307" depart="7339.00" from="653473569#5" to="124812857#0"/>
    <trip id="308" depart="7353.00" from="201963537#1" to="-653473569#5"/>
    <trip id="309" depart="7364.00" from="201963537#1" to="104012170"/>
    <trip id="310" depart="7365.00" from="653473569#5" to="124812857#0"/>
    <trip id="311" depart="7366.00" from="201963537#1" to="-653473569#5"/>
    <trip id="312" depart="7369.00" from="653473569#5" to="104012170"/>
    <trip id="313" depart="7380.00" from="104010354" to="124812857#0"/>
    <trip id="314" depart="7386.00" from="104010354" to="124812857#0"/>
    <trip id="315" depart="7398.00" from="653473569#5" to="124812857#0"/>
    <trip id="316" depart="7409.00" from="201963537#1" to="104012170"/>
    <trip id="317" depart="7457.00" from="201963537#1" to="-653473569#5"/>
    <trip id="318" depart="7460.00" from="201963537#1" to="104012170"/>
    <trip id="319" depart="7478.00" from="201963537#1" to="104012170"/>
    <trip id="320" depart="7480.00" from="653473569#5" to="124812857#0"/>
    <trip id="321" depart="7494.00" from="201963537#1" to="104012170"/>
    <trip id="322" depart="7529.00" from="25149219#1" to="104012170"/>
    <trip id="323" depart="7561.00" from="653473569#5" to="124812857#0"/>
    <trip id="324" depart="7611.00" from="201963537#1" to="104012170"/>
    <trip id="325" depart="7613.00" from="653473569#5" to="104012170"/>
    <trip id="327" depart="7618.00" from="104010354" to="-653473569#5"/>
    <trip id="328" depart="7630.00" from="653473569#5" to="104012170"/>
    <trip id="329" depart="7632.00" from="104010354" to="-653473569#5"/>
    <trip id="331" depart="7651.00" from="201963537#1" to="-653473569#5"/>
    <trip id="332" depart="7651.00" from="653473569#5" to="124812857#0"/>
    <trip id="333" depart="7651.00" from="104010354" to="124812857#0"/>
    <trip id="335" depart="7653.00" from="201963537#1" to="104012170"/>
    <trip id="336" depart="7659.00" from="201963537#1" to="104012170"/>
    <trip id="337" depart="7667.00" from="25149219#1" to="104012170"/>
    <trip id="338" depart="7678.00" from="104010354" to="124812857#0"/>
    <trip id="340" depart="7680.00" from="201963537#1" to="104012170"/>
    <trip id="341" depart="7706.00" from="653473569#5" to="124812857#0"/>
    <trip id="342" depart="7734.00" from="201963537#1" to="104012170"/>
    <trip id="343" depart="7734.00" from="653473569#5" to="124812857#0"/>
    <trip id="344" depart="7741.00" from="25149219#1" to="104012170"/>
    <trip id="345" depart="7767.00" from="25149219#1" to="104012170"/>
    <trip id="346" depart="7768.00" from="104010354" to="124812857#0"/>
    <trip id="347" depart="7776.00" from="653473569#5" to="104012170"/>
    <trip id="348" depart="7776.00" from="653473569#5" to="124812857#0"/>
    <trip id="349" depart="7784.00" from="201963537#1" to="104012170"/>
    <trip id="350" depart="7808.00" from="25149219#1" to="104012170"/>
    <trip id="351" depart="7808.00" from="653473569#5" to="104012170"/>
    <trip id="352" depart="7818.00" from="104010354" to="124812857#0"/>
    <trip id="353" depart="7820.00" from="653473569#5" to="104012170"/>
    <trip id="354" depart="7835.00" from="653473569#5" to="104012170"/>
    <trip id="355" depart="7852.00" from="104010354" to="124812857#0"/>
    <trip id="356" depart="7854.00" from="653473569#5" to="124812857#0"/>
    <trip id="357" depart="7859.00" from="201963537#1" to="104012170"/>
    <trip id="359" depart="7875.00" from="25149219#1" to="104012170"/>
    <trip id="360" depart="7889.00" from="653473569#5" to="104012170"/>
    <trip id="361" depart="7907.00" from="653473569#5" to="104012170"/>
    <trip id="362" depart="7952.00" from="653473569#5" to="104012170"/>
    <trip id="363" depart="7984.00" from="201963537#1" to="104012170"/>
    <trip id="364" depart="7996.00" from="653473569#5" to="104012170"/>
    <trip id="365" depart="8001.00" from="25149219#1" to="-653473569#5"/>
    <trip id="367" depart="8034.00" from="104010354" to="124812857#0"/>
    <trip id="368" depart="8040.00" from="104010354" to="124812857#0"/>
    <trip id="369" depart="8057.00" from="653473569#5" to="104012170"/>
    <trip id="371" depart="8090.00" from="201963537#1" to="104012170"/>
    <trip id="372" depart="8114.00" from="25149219#1" to="104012170"/>
    <trip id="374" depart="8163.00" from="104010354" to="124812857#0"/>
    <trip id="375" depart="8193.00" from="104010354" to="124812857#0"/>
    <trip id="376" depart="8195.00" from="104010354" to="-653473569#5"/>
    <trip id="377" depart="8205.00" from="201963537#1" to="104012170"/>
    <trip id="378" depart="8207.00" from="25149219#1" to="104012170"/>
    <trip id="379" depart="8209.00" from="653473569#5" to="104012170"/>
    <trip id="380" depart="8222.00" from="653473569#5" to="104012170"/>
    <trip id="381" depart="8249.00" from="653473569#5" to="104012170"/>
    <trip id="382" depart="8249.00" from="104010354" to="124812857#0"/>
    <trip id="384" depart="8279.00" from="201963537#1" to="104012170"/>
    <trip id="385" depart="8296.00" from="653473569#5" to="104012170"/>
    <trip id="386" depart="8307.00" from="25149219#1" to="-653473569#5"/>
    <trip id="387" depart="8318.00" from="201963537#1" to="104012170"/>
    <trip id="388" depart="8346.00" from="104010354" to="-653473569#5"/>
    <trip id="389" depart="8346.00" from="104010354" to="124812857#0"/>
    <trip id="391" depart="8360.00" from="201963537#1" to="104012170"/>
    <trip id="393" depart="8375.00" from="201963537#1" to="104012170"/>
    <trip id="394" depart="8399.00" from="25149219#1" to="104012170"/>
    <trip id="395" depart="8399.00" from="653473569#5" to="124812857#0"/>
    <trip id="396" depart="8404.00" from="25149219#1" to="104012170"/>
    <trip id="397" depart="8416.00" from="653473569#5" to="104012170"/>
    <trip id="398" depart="8424.00" from="201963537#1" to="104012170"/>
    <trip id="399" depart="8432.00" from="653473569#5" to="124812857#0"/>
    <trip id="400" depart="8432.00" from="201963537#1" to="-653473569#5"/>
    <trip id="401" depart="8461.00" from="201963537#1" to="104012170"/>
    <trip id="402" depart="8476.00" from="201963537#1" to="-653473569#5"/>
    <trip id="403" depart="8496.00" from="653473569#5" to="104012170"/>
    <trip id="404" depart="8514.00" from="201963537#1" to="104012170"/>
    <trip id="405" depart="8549.00" from="104010354" to="-653473569#5"/>
    <trip id="407" depart="8556.00" from="653473569#5" to="104012170"/>
    <trip id="408" depart="8575.00" from="201963537#1" to="104012170"/>
    <trip id="409" depart="8606.00" from="25149219#1" to="104012170"/>
    <trip id="411" depart="8610.00" from="104010354" to="124812857#0"/>
    <trip id="412" depart="8626.00" from="104010354" to="-653473569#5"/>
    <trip id="414" depart="8636.00" from="201963537#1" to="104012170"/>
    <trip id="417" depart="8688.00" from="104010354" to="-653473569#5"/>
    <trip id="418" depart="8693.00" from="104010354" to="124812857#0"/>
    <trip id="419" depart="8703.00" from="653473569#5" to="124812857#0"/>
    <trip id="420" depart="8723.00" from="201963537#1" to="-653473569#5"/>
    <trip id="421" depart="8766.00" from="653473569#5" to="104012170"/>
    <trip id="422" depart="8773.00" from="653473569#5" to="104012170"/>
    <trip id="423" depart="8773.00" from="201963537#1" to="-653473569#5"/>
    <trip id="425" depart="8790.00" from="104010354" to="124812857#0"/>
    <trip id="426" depart="8810.00" from="25149219#1" to="104012170"/>
    <trip id="428" depart="8829.00" from="201963537#1" to="-653473569#5"/>
    <trip id="429" depart="8836.00" from="104010354" to="-653473569#5"/>
    <trip id="430" depart="8844.00" from="653473569#5" to="104012170"/>
    <trip id="432" depart="8845.00" from="653473569#5" to="124812857#0"/>
    <trip id="433" depart="8868.00" from="653473569#5" to="124812857#0"/>
    <trip id="434" depart="8893.00" from="653473569#5" to="104012170"/>
    <trip id="435" depart="8915.00" from="201963537#1" to="104012170"/>
    <trip id="436" depart="8918.00" from="201963537#1" to="104012170"/>
    <trip id="437" depart="8926.00" from="25149219#1" to="-653473569#5"/>
    <trip id="438" depart="8930.00" from="653473569#5" to="124812857#0"/>
    <trip id="439" depart="8932.00" from="201963537#1" to="-653473569#5"/>
    <trip id="440" depart="8948.00" from="104010354" to="-653473569#5"/>
    <trip id="441" depart="8969.00" from="653473569#5" to="124812857#0"/>
    <trip id="442" depart="8971.00" from="25149219#1" to="104012170"/>
    <trip id="443" depart="8974.00" from="653473569#5" to="104012170"/>
    <trip id="444" depart="8988.00" from="25149219#1" to="104012170"/>
    <trip id="446" depart="9043.00" from="25149219#1" to="104012170"/>
    <trip id="448" depart="9061.00" from="201963537#1" to="104012170"/>
    <trip id="449" depart="9063.00" from="201963537#1" to="104012170"/>
    <trip id="451" depart="9086.00" from="104010354" to="124812857#0"/>
    <trip id="452" depart="9091.00" from="104010354" to="124812857#0"/>
    <trip id="453" depart="9092.00" from="653473569#5" to="104012170"/>
    <trip id="454" depart="9114.00" from="104010354" to="124812857#0"/>
    <trip id="455" depart="9138.00" from="104010354" to="124812857#0"/>
    <trip id="457" depart="9139.00" from="25149219#1" to="104012170"/>
    <trip id="459" depart="9173.00" from="25149219#1" to="104012170"/>
    <trip id="460" depart="9183.00" from="104010354" to="124812857#0"/>
    <trip id="463" depart="9228.00" from="25149219#1" to="104012170"/>
    <trip id="464" depart="9237.00" from="653473569#5" to="124812857#0"/>
    <trip id="466" depart="9252.00" from="201963537#1" to="104012170"/>
    <trip id="467" depart="9270.00" from="201963537#1" to="104012170"/>
    <trip id="468" depart="9277.00" from="104010354" to="-653473569#5"/>
    <trip id="469" depart="9308.00" from="201963537#1" to="-653473569#5"/>
    <trip id="470" depart="9311.00" from="653473569#5" to="124812857#0"/>
    <trip id="471" depart="9325.00" from="201963537#1" to="104012170"/>