<?xml version="1.0" encoding="UTF-8"?>

<!-- generated on 2023-09-16 15:19:44 by Eclipse SUMO netedit Version 1.18.0
-->

<additional xmlns:xsi="http://www.w3.org/2001/XMLSchema-instance" xsi:noNamespaceSchemaLocation="http://sumo.dlr.de/xsd/additional_file.xsd">
    <!-- Detectors -->
    <laneAreaDetector id="e2_0" lane="-32038056#3_0" pos="331.01" length="20.00" period="300.00" file="e2_0.xml"/>
    <laneAreaDetector id="e2_1" lane="-32038056#3_1" pos="331.14" length="20.00" period="300.00" file="e2_1.xml"/>
    <laneAreaDetector id="e2_2" lane="23429231#1_0" pos="76.07" length="20.00" period="300.00" file="e2_2.xml"/>
    <laneAreaDetector id="e2_3" lane="23429231#1_1" pos="76.54" length="20.00" period="300.00" file="e2_3.xml"/>
    <laneAreaDetector id="e2_4" lane="28198821#3_0" pos="37.18" length="20.00" period="300.00" file="e2_4.xml"/>
    <laneAreaDetector id="e2_5" lane="28198821#3_1" pos="37.07" length="20.00" period="300.00" file="e2_5.xml"/>
    <laneAreaDetector id="e2_6" lane="27115123#3_0" pos="21.27" length="20.00" period="300.00" file="e2_6.xml"/>
    <laneAreaDetector id="e2_7" lane="27115123#3_1" pos="21.33" length="20.00" period="300.00" file="e2_7.xml"/>
</additional>
