<additional xmlns:xsi="http://www.w3.org/2001/XMLSchema-instance" xsi:noNamespaceSchemaLocation="http://sumo.dlr.de/xsd/additional_file.xsd">
    <laneAreaDetector file="e2output.xml" freq="60" friendlyPos="x" id="e2det_-32038056#3_0" lane="-32038056#3_0" length="35" pos="316.13"/>
    <laneAreaDetector file="e2output.xml" freq="60" friendlyPos="x" id="e2det_-32038056#3_1" lane="-32038056#3_1" length="35" pos="316.13"/>
    <laneAreaDetector file="e2output.xml" freq="60" friendlyPos="x" id="e2det_23429231#1_0" lane="23429231#1_0" length="35" pos="61.46999999999999"/>
    <laneAreaDetector file="e2output.xml" freq="60" friendlyPos="x" id="e2det_23429231#1_1" lane="23429231#1_1" length="35" pos="61.46999999999999"/>
    <laneAreaDetector file="e2output.xml" freq="60" friendlyPos="x" id="e2det_27115123#3_0" lane="27115123#3_0" length="35" pos="6.379999999999997"/>
    <laneAreaDetector file="e2output.xml" freq="60" friendlyPos="x" id="e2det_27115123#3_1" lane="27115123#3_1" length="35" pos="6.379999999999997"/>
    <laneAreaDetector file="e2output.xml" freq="60" friendlyPos="x" id="e2det_28198821#3_0" lane="28198821#3_0" length="35" pos="22.089999999999996"/>
    <laneAreaDetector file="e2output.xml" freq="60" friendlyPos="x" id="e2det_28198821#3_1" lane="28198821#3_1" length="35" pos="22.089999999999996"/>
</additional>
