<?xml version="1.0" encoding="UTF-8"?>

<!-- generated on 2023-09-20 13:43:11.107702 by randomTrips.py v1_18_0+0000-03ecfdea036
<configuration>
    <net-file value="nets/cologne1/cologne1.net.xml"/>
    <output-trip-file value="nets/cologne1/cologne1_train.rou.xml"/>
    <lanes value="True"/>
    <fringe-factor value="max"/>
    <random value="True"/>
    <min-distance value="100.0"/>
    <validate value="True"/>
    <end value="86400.0"/>
    <insertion-rate value="100.0 200.0 300.0 400.0 500.0 600.0 700.0 800.0 900.0 1000.0 1100.0 1200.0 1300.0 1400.0 1500.0 1600.0 1700.0 1800.0 1900.0 2000.0 2100.0 2200.0 2300.0 2400.0"/>
    <random-depart value="True"/>
    <duarouter-remove-loops value="true"/>
</configuration>
-->

<!-- generated on 2023-09-20 13:43:09 by Eclipse SUMO duarouter Version 1.18.0
<configuration xmlns:xsi="http://www.w3.org/2001/XMLSchema-instance" xsi:noNamespaceSchemaLocation="http://sumo.dlr.de/xsd/duarouterConfiguration.xsd">

    <input>
        <net-file value="nets/cologne1/cologne1.net.xml"/>
        <route-files value="nets/cologne1/cologne1_train.rou.xml"/>
    </input>

    <output>
        <output-file value="nets/cologne1/cologne1_train.rou.xml.tmp"/>
        <alternatives-output value="NUL"/>
        <write-trips value="true"/>
    </output>

    <processing>
        <remove-loops value="true"/>
    </processing>

    <time>
        <begin value="0"/>
        <end value="86400.0"/>
    </time>

    <report>
        <no-warnings value="true"/>
        <ignore-errors value="true"/>
        <no-step-log value="true"/>
    </report>

</configuration>
-->

<routes xmlns:xsi="http://www.w3.org/2001/XMLSchema-instance" xsi:noNamespaceSchemaLocation="http://sumo.dlr.de/xsd/routes_file.xsd">
    <trip id="0" depart="9.00" from="27115123#2" to="32324544#0"/>
    <trip id="1" depart="59.00" from="27115123#2" to="-28198821#4"/>
    <trip id="2" depart="132.00" from="28198821#3" to="32038051#0"/>
    <trip id="3" depart="208.00" from="23429231#1" to="32038051#0"/>
    <trip id="4" depart="257.00" from="23429231#1" to="32038051#0"/>
    <trip id="5" depart="262.00" from="27115123#2" to="32324544#0"/>
    <trip id="6" depart="299.00" from="28198821#3" to="32038056#0"/>
    <trip id="7" depart="303.00" from="-32038056#3" to="32038051#0"/>
    <trip id="8" depart="330.00" from="130165204" to="-28198821#4"/>
    <trip id="9" depart="331.00" from="27115123#2" to="32324544#0"/>
    <trip id="10" depart="337.00" from="23429231#1" to="32038056#0"/>
    <trip id="11" depart="347.00" from="130165204" to="32324544#0"/>
    <trip id="12" depart="401.00" from="-32038056#3" to="-28198821#4"/>
    <trip id="13" depart="421.00" from="28198821#3" to="32038051#0"/>
    <trip id="14" depart="437.00" from="-32038056#3" to="32038051#0"/>
    <trip id="15" depart="519.00" from="27115123#2" to="32324544#0"/>
    <trip id="16" depart="519.00" from="-32038056#3" to="-28198821#4"/>
    <trip id="17" depart="520.00" from="27115123#2" to="32324544#0"/>
    <trip id="18" depart="642.00" from="27115123#2" to="32038056#0"/>
    <trip id="19" depart="660.00" from="-32038056#3" to="-28198821#4"/>
    <trip id="20" depart="663.00" from="-32038056#3" to="-28198821#4"/>
    <trip id="21" depart="682.00" from="-32038056#3" to="-28198821#4"/>
    <trip id="22" depart="725.00" from="28198821#3" to="32038051#0"/>
    <trip id="23" depart="737.00" from="-32038056#3" to="32038051#0"/>
    <trip id="24" depart="847.00" from="27115123#2" to="32324544#0"/>
    <trip id="25" depart="852.00" from="28198821#3" to="32324544#0"/>
    <trip id="26" depart="856.00" from="23429231#1" to="32038056#0"/>
    <trip id="27" depart="894.00" from="27115123#2" to="32324544#0"/>
    <trip id="28" depart="896.00" from="130165204" to="-28198821#4"/>
    <trip id="29" depart="930.00" from="27115123#2" to="-28198821#4"/>
    <trip id="30" depart="966.00" from="-32038056#3" to="32038051#0"/>
    <trip id="31" depart="1023.00" from="23429231#1" to="32038051#0"/>
    <trip id="32" depart="1028.00" from="-32038056#3" to="32038051#0"/>
    <trip id="33" depart="1038.00" from="23429231#1" to="32038056#0"/>
    <trip id="34" depart="1062.00" from="27115123#2" to="-28198821#4"/>
    <trip id="35" depart="1134.00" from="23429231#1" to="32038051#0"/>
    <trip id="36" depart="1184.00" from="27115123#2" to="-28198821#4"/>
    <trip id="37" depart="1221.00" from="27115123#2" to="-28198821#4"/>
    <trip id="38" depart="1289.00" from="23429231#1" to="32038056#0"/>
    <trip id="39" depart="1317.00" from="27115123#2" to="32324544#0"/>
    <trip id="40" depart="1325.00" from="-32038056#3" to="-28198821#4"/>
    <trip id="41" depart="1419.00" from="130165204" to="-28198821#4"/>
    <trip id="42" depart="1553.00" from="130165204" to="32324544#0"/>
    <trip id="43" depart="1569.00" from="-32038056#3" to="-28198821#4"/>
    <trip id="44" depart="1600.00" from="28198821#3" to="32038051#0"/>
    <trip id="45" depart="1653.00" from="-32038056#3" to="32324544#0"/>
    <trip id="46" depart="1682.00" from="28198821#3" to="32324544#0"/>
    <trip id="47" depart="1706.00" from="-32038056#3" to="32038051#0"/>
    <trip id="48" depart="1790.00" from="23429231#1" to="32038056#0"/>
    <trip id="49" depart="1855.00" from="27115123#2" to="32038056#0"/>
    <trip id="50" depart="1989.00" from="-32038056#3" to="32038051#0"/>
    <trip id="51" depart="2019.00" from="27115123#2" to="-28198821#4"/>
    <trip id="52" depart="2174.00" from="27115123#2" to="32038056#0"/>
    <trip id="53" depart="2201.00" from="-32038056#3" to="32038051#0"/>
    <trip id="54" depart="2245.00" from="28198821#3" to="32038056#0"/>
    <trip id="55" depart="2249.00" from="-32038056#3" to="32324544#0"/>
    <trip id="56" depart="2250.00" from="-32038056#3" to="32324544#0"/>
    <trip id="57" depart="2302.00" from="23429231#1" to="32038051#0"/>
    <trip id="58" depart="2306.00" from="130165204" to="-28198821#4"/>
    <trip id="59" depart="2314.00" from="27115123#2" to="32324544#0"/>
    <trip id="60" depart="2354.00" from="23429231#1" to="-28198821#4"/>
    <trip id="61" depart="2365.00" from="-32038056#3" to="32038051#0"/>
    <trip id="62" depart="2378.00" from="28198821#3" to="32038051#0"/>
    <trip id="63" depart="2410.00" from="27115123#2" to="32324544#0"/>
    <trip id="64" depart="2450.00" from="23429231#1" to="32038051#0"/>
    <trip id="65" depart="2450.00" from="28198821#3" to="32038051#0"/>
    <trip id="66" depart="2476.00" from="23429231#1" to="32038051#0"/>
    <trip id="67" depart="2559.00" from="130165204" to="32038056#0"/>
    <trip id="68" depart="2565.00" from="28198821#3" to="32038051#0"/>
    <trip id="69" depart="2633.00" from="23429231#1" to="-28198821#4"/>
    <trip id="70" depart="2634.00" from="23429231#1" to="32038056#0"/>
    <trip id="71" depart="2658.00" from="23429231#1" to="32038051#0"/>
    <trip id="72" depart="2699.00" from="27115123#2" to="32324544#0"/>
    <trip id="73" depart="2730.00" from="23429231#1" to="32038051#0"/>
    <trip id="74" depart="2777.00" from="27115123#2" to="32038056#0"/>
    <trip id="75" depart="2785.00" from="28198821#3" to="32324544#0"/>
    <trip id="76" depart="2827.00" from="28198821#3" to="32324544#0"/>
    <trip id="77" depart="2858.00" from="-32038056#3" to="32038051#0"/>
    <trip id="78" depart="2913.00" from="130165204" to="32324544#0"/>
    <trip id="79" depart="3004.00" from="28198821#3" to="32038056#0"/>
    <trip id="80" depart="3005.00" from="27115123#2" to="32324544#0"/>
    <trip id="81" depart="3010.00" from="27115123#2" to="32324544#0"/>
    <trip id="82" depart="3010.00" from="27115123#2" to="32038056#0"/>
    <trip id="83" depart="3074.00" from="130165204" to="32038051#0"/>
    <trip id="84" depart="3077.00" from="-32038056#3" to="32038051#0"/>
    <trip id="85" depart="3189.00" from="130165204" to="32324544#0"/>
    <trip id="86" depart="3196.00" from="27115123#2" to="32324544#0"/>
    <trip id="87" depart="3207.00" from="23429231#1" to="32038051#0"/>
    <trip id="88" depart="3232.00" from="27115123#2" to="32038056#0"/>
    <trip id="89" depart="3248.00" from="28198821#3" to="32038056#0"/>
    <trip id="90" depart="3338.00" from="27115123#2" to="32324544#0"/>
    <trip id="91" depart="3353.00" from="-32038056#3" to="32324544#0"/>
    <trip id="92" depart="3425.00" from="28198821#3" to="32038056#0"/>
    <trip id="93" depart="3429.00" from="130165204" to="-28198821#4"/>
    <trip id="94" depart="3460.00" from="-32038056#3" to="-28198821#4"/>
    <trip id="95" depart="3486.00" from="-32038056#3" to="32038051#0"/>
    <trip id="96" depart="3541.00" from="-32038056#3" to="32324544#0"/>
    <trip id="97" depart="3541.00" from="-32038056#3" to="32038051#0"/>
    <trip id="98" depart="3554.00" from="27115123#2" to="32324544#0"/>
    <trip id="99" depart="3572.00" from="-32038056#3" to="-28198821#4"/>
    <trip id="100" depart="3611.00" from="28198821#3" to="32038056#0"/>
    <trip id="101" depart="3623.00" from="28198821#3" to="32038051#0"/>
    <trip id="102" depart="3625.00" from="-32038056#3" to="32324544#0"/>
    <trip id="103" depart="3630.00" from="23429231#1" to="32038056#0"/>
    <trip id="104" depart="3638.00" from="-32038056#3" to="32038051#0"/>
    <trip id="105" depart="3642.00" from="-32038056#3" to="-28198821#4"/>
    <trip id="106" depart="3644.00" from="28198821#3" to="32324544#0"/>
    <trip id="107" depart="3652.00" from="130165204" to="32038051#0"/>
    <trip id="108" depart="3676.00" from="28198821#3" to="32324544#0"/>
    <trip id="109" depart="3698.00" from="23429231#1" to="32038056#0"/>
    <trip id="110" depart="3730.00" from="23429231#1" to="32038056#0"/>
    <trip id="111" depart="3732.00" from="-32038056#3" to="32324544#0"/>
    <trip id="112" depart="3734.00" from="23429231#1" to="32038051#0"/>
    <trip id="113" depart="3771.00" from="130165204" to="32324544#0"/>
    <trip id="114" depart="3774.00" from="-32038056#3" to="-28198821#4"/>
    <trip id="115" depart="3775.00" from="27115123#2" to="32324544#0"/>
    <trip id="116" depart="3777.00" from="23429231#1" to="32038051#0"/>
    <trip id="117" depart="3802.00" from="130165204" to="32038056#0"/>
    <trip id="118" depart="3825.00" from="28198821#3" to="32038051#0"/>
    <trip id="119" depart="3843.00" from="130165204" to="32038051#0"/>
    <trip id="120" depart="3862.00" from="27115123#2" to="32324544#0"/>
    <trip id="121" depart="3867.00" from="-32038056#3" to="-28198821#4"/>
    <trip id="122" depart="3884.00" from="27115123#2" to="32324544#0"/>
    <trip id="123" depart="3909.00" from="28198821#3" to="32038056#0"/>
    <trip id="124" depart="3910.00" from="-32038056#3" to="32038051#0"/>
    <trip id="125" depart="3926.00" from="28198821#3" to="32038051#0"/>
    <trip id="126" depart="3932.00" from="-32038056#3" to="-28198821#4"/>
    <trip id="127" depart="3933.00" from="28198821#3" to="32324544#0"/>
    <trip id="128" depart="3943.00" from="23429231#1" to="32038056#0"/>
    <trip id="129" depart="3953.00" from="23429231#1" to="32038051#0"/>
    <trip id="130" depart="3962.00" from="130165204" to="32038056#0"/>
    <trip id="131" depart="4019.00" from="-32038056#3" to="-28198821#4"/>
    <trip id="132" depart="4040.00" from="-32038056#3" to="32038051#0"/>
    <trip id="133" depart="4041.00" from="-32038056#3" to="-28198821#4"/>
    <trip id="134" depart="4060.00" from="28198821#3" to="32038051#0"/>
    <trip id="135" depart="4067.00" from="-32038056#3" to="-28198821#4"/>
    <trip id="136" depart="4089.00" from="27115123#2" to="-28198821#4"/>
    <trip id="137" depart="4104.00" from="-32038056#3" to="32324544#0"/>
    <trip id="138" depart="4111.00" from="28198821#3" to="32038051#0"/>
    <trip id="139" depart="4122.00" from="-32038056#3" to="32038051#0"/>
    <trip id="140" depart="4126.00" from="130165204" to="32038051#0"/>
    <trip id="141" depart="4132.00" from="-32038056#3" to="-28198821#4"/>
    <trip id="142" depart="4175.00" from="23429231#1" to="32038056#0"/>
    <trip id="143" depart="4222.00" from="27115123#2" to="32324544#0"/>
    <trip id="144" depart="4235.00" from="28198821#3" to="32038056#0"/>
    <trip id="145" depart="4262.00" from="28198821#3" to="32324544#0"/>
    <trip id="146" depart="4307.00" from="27115123#2" to="-28198821#4"/>
    <trip id="147" depart="4345.00" from="-32038056#3" to="-28198821#4"/>
    <trip id="148" depart="4378.00" from="28198821#3" to="32038051#0"/>
    <trip id="149" depart="4379.00" from="130165204" to="-28198821#4"/>
    <trip id="150" depart="4394.00" from="-32038056#3" to="32324544#0"/>
    <trip id="151" depart="4423.00" from="23429231#1" to="32038051#0"/>
    <trip id="152" depart="4447.00" from="130165204" to="32324544#0"/>
    <trip id="153" depart="4453.00" from="28198821#3" to="32038056#0"/>
    <trip id="154" depart="4483.00" from="27115123#2" to="-28198821#4"/>
    <trip id="155" depart="4507.00" from="27115123#2" to="32038056#0"/>
    <trip id="156" depart="4522.00" from="130165204" to="-28198821#4"/>
    <trip id="157" depart="4555.00" from="23429231#1" to="-28198821#4"/>
    <trip id="158" depart="4557.00" from="28198821#3" to="32038051#0"/>
    <trip id="159" depart="4588.00" from="23429231#1" to="32038056#0"/>
    <trip id="160" depart="4590.00" from="130165204" to="32324544#0"/>
    <trip id="161" depart="4662.00" from="28198821#3" to="32038056#0"/>
    <trip id="162" depart="4672.00" from="-32038056#3" to="32324544#0"/>
    <trip id="163" depart="4674.00" from="-32038056#3" to="32324544#0"/>
    <trip id="164" depart="4677.00" from="28198821#3" to="32038056#0"/>
    <trip id="165" depart="4680.00" from="28198821#3" to="32038056#0"/>
    <trip id="166" depart="4686.00" from="-32038056#3" to="32038051#0"/>
    <trip id="167" depart="4694.00" from="23429231#1" to="-28198821#4"/>
    <trip id="168" depart="4699.00" from="27115123#2" to="32038056#0"/>
    <trip id="169" depart="4719.00" from="27115123#2" to="32038056#0"/>
    <trip id="170" depart="4777.00" from="27115123#2" to="-28198821#4"/>
    <trip id="171" depart="4784.00" from="28198821#3" to="32324544#0"/>
    <trip id="172" depart="4876.00" from="27115123#2" to="-28198821#4"/>
    <trip id="173" depart="4902.00" from="23429231#1" to="32038051#0"/>
    <trip id="174" depart="4911.00" from="27115123#2" to="-28198821#4"/>
    <trip id="175" depart="4976.00" from="27115123#2" to="-28198821#4"/>
    <trip id="176" depart="4980.00" from="28198821#3" to="32038056#0"/>
    <trip id="177" depart="4999.00" from="27115123#2" to="32038056#0"/>
    <trip id="178" depart="5010.00" from="28198821#3" to="32038051#0"/>
    <trip id="179" depart="5028.00" from="28198821#3" to="32038056#0"/>
    <trip id="180" depart="5045.00" from="27115123#2" to="32038056#0"/>
    <trip id="181" depart="5057.00" from="27115123#2" to="-28198821#4"/>
    <trip id="182" depart="5080.00" from="-32038056#3" to="32038051#0"/>
    <trip id="183" depart="5082.00" from="-32038056#3" to="32038051#0"/>
    <trip id="184" depart="5084.00" from="-32038056#3" to="-28198821#4"/>
    <trip id="185" depart="5087.00" from="28198821#3" to="32324544#0"/>
    <trip id="186" depart="5099.00" from="27115123#2" to="32324544#0"/>
    <trip id="187" depart="5111.00" from="130165204" to="-28198821#4"/>
    <trip id="188" depart="5117.00" from="-32038056#3" to="32038051#0"/>
    <trip id="189" depart="5125.00" from="28198821#3" to="32324544#0"/>
    <trip id="190" depart="5149.00" from="27115123#2" to="32038056#0"/>
    <trip id="191" depart="5171.00" from="-32038056#3" to="32324544#0"/>
    <trip id="192" depart="5173.00" from="-32038056#3" to="-28198821#4"/>
    <trip id="193" depart="5200.00" from="130165204" to="-28198821#4"/>
    <trip id="194" depart="5226.00" from="28198821#3" to="32038056#0"/>
    <trip id="195" depart="5250.00" from="27115123#2" to="32038056#0"/>
    <trip id="196" depart="5251.00" from="-32038056#3" to="-28198821#4"/>
    <trip id="197" depart="5255.00" from="27115123#2" to="32038056#0"/>
    <trip id="198" depart="5354.00" from="23429231#1" to="-28198821#4"/>
    <trip id="199" depart="5386.00" from="-32038056#3" to="-28198821#4"/>
    <trip id="200" depart="5398.00" from="28198821#3" to="32038056#0"/>
    <trip id="201" depart="5445.00" from="27115123#2" to="32038056#0"/>
    <trip id="202" depart="5448.00" from="23429231#1" to="32038051#0"/>
    <trip id="203" depart="5475.00" from="23429231#1" to="32038056#0"/>
    <trip id="204" depart="5519.00" from="23429231#1" to="-28198821#4"/>
    <trip id="205" depart="5532.00" from="27115123#2" to="-28198821#4"/>
    <trip id="206" depart="5533.00" from="23429231#1" to="32038056#0"/>
    <trip id="207" depart="5545.00" from="28198821#3" to="32038051#0"/>
    <trip id="208" depart="5550.00" from="-32038056#3" to="-28198821#4"/>
    <trip id="209" depart="5558.00" from="27115123#2" to="32324544#0"/>
    <trip id="210" depart="5561.00" from="130165204" to="32038051#0"/>
    <trip id="211" depart="5584.00" from="-32038056#3" to="32324544#0"/>
    <trip id="212" depart="5588.00" from="27115123#2" to="32038056#0"/>
    <trip id="213" depart="5659.00" from="28198821#3" to="32324544#0"/>
    <trip id="214" depart="5683.00" from="-32038056#3" to="32038051#0"/>
    <trip id="215" depart="5688.00" from="28198821#3" to="32324544#0"/>
    <trip id="216" depart="5721.00" from="23429231#1" to="32038056#0"/>
    <trip id="217" depart="5773.00" from="130165204" to="-28198821#4"/>
    <trip id="218" depart="5789.00" from="130165204" to="32038051#0"/>
    <trip id="219" depart="5825.00" from="23429231#1" to="-28198821#4"/>
    <trip id="220" depart="5826.00" from="23429231#1" to="-28198821#4"/>
    <trip id="221" depart="5833.00" from="27115123#2" to="32324544#0"/>
    <trip id="222" depart="5836.00" from="23429231#1" to="32038056#0"/>
    <trip id="223" depart="5844.00" from="23429231#1" to="32038056#0"/>
    <trip id="224" depart="5849.00" from="28198821#3" to="32038051#0"/>
    <trip id="225" depart="5852.00" from="23429231#1" to="32038051#0"/>
    <trip id="226" depart="5861.00" from="-32038056#3" to="32038051#0"/>
    <trip id="227" depart="5863.00" from="28198821#3" to="32038051#0"/>
    <trip id="228" depart="5869.00" from="23429231#1" to="-28198821#4"/>
    <trip id="229" depart="5911.00" from="27115123#2" to="32324544#0"/>
    <trip id="230" depart="5914.00" from="-32038056#3" to="32324544#0"/>
    <trip id="231" depart="5984.00" from="27115123#2" to="-28198821#4"/>
    <trip id="232" depart="5997.00" from="-32038056#3" to="32038051#0"/>
    <trip id="233" depart="6026.00" from="23429231#1" to="32038056#0"/>
    <trip id="234" depart="6030.00" from="23429231#1" to="32038051#0"/>
    <trip id="235" depart="6081.00" from="-32038056#3" to="32038051#0"/>
    <trip id="236" depart="6087.00" from="27115123#2" to="-28198821#4"/>
    <trip id="237" depart="6087.00" from="130165204" to="32038051#0"/>
    <trip id="238" depart="6094.00" from="28198821#3" to="32038056#0"/>
    <trip id="239" depart="6096.00" from="-32038056#3" to="32038051#0"/>
    <trip id="240" depart="6105.00" from="23429231#1" to="-28198821#4"/>
    <trip id="241" depart="6114.00" from="27115123#2" to="-28198821#4"/>
    <trip id="242" depart="6114.00" from="-32038056#3" to="-28198821#4"/>
    <trip id="243" depart="6137.00" from="27115123#2" to="32038056#0"/>
    <trip id="244" depart="6148.00" from="28198821#3" to="32038051#0"/>
    <trip id="245" depart="6175.00" from="-32038056#3" to="32038051#0"/>
    <trip id="246" depart="6232.00" from="-32038056#3" to="32038051#0"/>
    <trip id="247" depart="6234.00" from="28198821#3" to="32038056#0"/>
    <trip id="248" depart="6249.00" from="28198821#3" to="32324544#0"/>
    <trip id="249" depart="6254.00" from="28198821#3" to="32038056#0"/>
    <trip id="250" depart="6263.00" from="23429231#1" to="-28198821#4"/>
    <trip id="251" depart="6320.00" from="-32038056#3" to="32324544#0"/>
    <trip id="252" depart="6331.00" from="28198821#3" to="32038056#0"/>
    <trip id="253" depart="6400.00" from="28198821#3" to="32038051#0"/>
    <trip id="254" depart="6407.00" from="28198821#3" to="32038051#0"/>
    <trip id="255" depart="6409.00" from="27115123#2" to="32324544#0"/>
    <trip id="256" depart="6487.00" from="23429231#1" to="32038051#0"/>
    <trip id="257" depart="6556.00" from="23429231#1" to="-28198821#4"/>
    <trip id="258" depart="6572.00" from="-32038056#3" to="-28198821#4"/>
    <trip id="259" depart="6585.00" from="-32038056#3" to="-28198821#4"/>
    <trip id="260" depart="6610.00" from="23429231#1" to="32038051#0"/>
    <trip id="261" depart="6634.00" from="27115123#2" to="32038056#0"/>
    <trip id="262" depart="6653.00" from="28198821#3" to="32324544#0"/>
    <trip id="263" depart="6654.00" from="-32038056#3" to="-28198821#4"/>
    <trip id="264" depart="6654.00" from="23429231#1" to="32038051#0"/>
    <trip id="265" depart="6682.00" from="-32038056#3" to="32324544#0"/>
    <trip id="266" depart="6686.00" from="130165204" to="32324544#0"/>
    <trip id="267" depart="6689.00" from="27115123#2" to="32038056#0"/>
    <trip id="268" depart="6696.00" from="-32038056#3" to="-28198821#4"/>
    <trip id="269" depart="6726.00" from="27115123#2" to="32324544#0"/>
    <trip id="270" depart="6730.00" from="-32038056#3" to="-28198821#4"/>
    <trip id="271" depart="6736.00" from="23429231#1" to="32038051#0"/>
    <trip id="272" depart="6738.00" from="28198821#3" to="32324544#0"/>
    <trip id="273" depart="6753.00" from="23429231#1" to="32038051#0"/>
    <trip id="274" depart="6759.00" from="130165204" to="32324544#0"/>
    <trip id="275" depart="6767.00" from="130165204" to="-28198821#4"/>
    <trip id="276" depart="6809.00" from="-32038056#3" to="32038051#0"/>
    <trip id="277" depart="6819.00" from="28198821#3" to="32038056#0"/>
    <trip id="278" depart="6846.00" from="23429231#1" to="-28198821#4"/>
    <trip id="279" depart="6877.00" from="28198821#3" to="32038056#0"/>
    <trip id="280" depart="6895.00" from="23429231#1" to="32038056#0"/>
    <trip id="281" depart="6921.00" from="28198821#3" to="32324544#0"/>
    <trip id="282" depart="6924.00" from="27115123#2" to="32038056#0"/>
    <trip id="283" depart="6958.00" from="-32038056#3" to="32324544#0"/>
    <trip id="284" depart="6964.00" from="-32038056#3" to="32324544#0"/>
    <trip id="285" depart="6999.00" from="27115123#2" to="32038056#0"/>
    <trip id="286" depart="7016.00" from="130165204" to="32324544#0"/>
    <trip id="287" depart="7023.00" from="28198821#3" to="32038051#0"/>
    <trip id="288" depart="7031.00" from="27115123#2" to="-28198821#4"/>
    <trip id="289" depart="7040.00" from="27115123#2" to="-28198821#4"/>
    <trip id="290" depart="7056.00" from="28198821#3" to="32038056#0"/>
    <trip id="291" depart="7058.00" from="27115123#2" to="32038056#0"/>
    <trip id="292" depart="7084.00" from="27115123#2" to="-28198821#4"/>
    <trip id="293" depart="7096.00" from="28198821#3" to="32038051#0"/>
    <trip id="294" depart="7109.00" from="23429231#1" to="32038051#0"/>
    <trip id="295" depart="7109.00" from="23429231#1" to="32038056#0"/>
    <trip id="296" depart="7119.00" from="28198821#3" to="32324544#0"/>
    <trip id="297" depart="7143.00" from="-32038056#3" to="32038051#0"/>
    <trip id="298" depart="7153.00" from="23429231#1" to="32038051#0"/>
    <trip id="299" depart="7177.00" from="28198821#3" to="32038051#0"/>
    <trip id="300" depart="7200.00" from="27115123#2" to="-28198821#4"/>
    <trip id="301" depart="7222.00" from="27115123#2" to="32324544#0"/>
    <trip id="302" depart="7222.00" from="130165204" to="-28198821#4"/>
    <trip id="303" depart="7230.00" from="23429231#1" to="32038051#0"/>
    <trip id="304" depart="7233.00" from="-32038056#3" to="-28198821#4"/>
    <trip id="305" depart="7252.00" from="28198821#3" to="32038051#0"/>
    <trip id="306" depart="7278.00" from="130165204" to="32038056#0"/>
    <trip id="307" depart="7281.00" from="-32038056#3" to="-28198821#4"/>
    <trip id="308" depart="7287.00" from="130165204" to="32324544#0"/>
    <trip id="309" depart="7315.00" from="28198821#3" to="32324544#0"/>
    <trip id="310" depart="7336.00" from="-32038056#3" to="32324544#0"/>
    <trip id="311" depart="7361.00" from="130165204" to="32038051#0"/>
    <trip id="312" depart="7368.00" from="23429231#1" to="-28198821#4"/>
    <trip id="313" depart="7368.00" from="23429231#1" to="-28198821#4"/>
    <trip id="314" depart="7398.00" from="-32038056#3" to="32038051#0"/>
    <trip id="315" depart="7408.00" from="130165204" to="32038056#0"/>
    <trip id="316" depart="7441.00" from="-32038056#3" to="32324544#0"/>
    <trip id="317" depart="7442.00" from="28198821#3" to="32038056#0"/>
    <trip id="318" depart="7444.00" from="-32038056#3" to="-28198821#4"/>
    <trip id="319" depart="7478.00" from="28198821#3" to="32324544#0"/>
    <trip id="320" depart="7478.00" from="130165204" to="32038056#0"/>
    <trip id="321" depart="7508.00" from="28198821#3" to="32038051#0"/>
    <trip id="322" depart="7508.00" from="28198821#3" to="32324544#0"/>
    <trip id="323" depart="7587.00" from="28198821#3" to="32038056#0"/>
    <trip id="324" depart="7604.00" from="-32038056#3" to="-28198821#4"/>
    <trip id="325" depart="7618.00" from="23429231#1" to="32038056#0"/>
    <trip id="326" depart="7621.00" from="130165204" to="32038051#0"/>
    <trip id="327" depart="7650.00" from="27115123#2" to="32038056#0"/>
    <trip id="328" depart="7658.00" from="28198821#3" to="32038051#0"/>
    <trip id="329" depart="7658.00" from="27115123#2" to="32038056#0"/>
    <trip id="330" depart="7689.00" from="27115123#2" to="32324544#0"/>
    <trip id="331" depart="7689.00" from="23429231#1" to="32038051#0"/>
    <trip id="332" depart="7701.00" from="23429231#1" to="-28198821#4"/>
    <trip id="333" depart="7706.00" from="-32038056#3" to="-28198821#4"/>
    <trip id="334" depart="7734.00" from="27115123#2" to="32038056#0"/>
    <trip id="335" depart="7735.00" from="-32038056#3" to="32038051#0"/>
    <trip id="336" depart="7736.00" from="23429231#1" to="32038056#0"/>
    <trip id="337" depart="7739.00" from="130165204" to="-28198821#4"/>
    <trip id="338" depart="7740.00" from="23429231#1" to="32038051#0"/>
    <trip id="339" depart="7746.00" from="-32038056#3" to="-28198821#4"/>
    <trip id="340" depart="7746.00" from="23429231#1" to="32038051#0"/>
    <trip id="341" depart="7762.00" from="27115123#2" to="32324544#0"/>
    <trip id="342" depart="7774.00" from="130165204" to="32038056#0"/>
    <trip id="343" depart="7774.00" from="27115123#2" to="-28198821#4"/>
    <trip id="344" depart="7776.00" from="27115123#2" to="32038056#0"/>
    <trip id="345" depart="7779.00" from="28198821#3" to="32038056#0"/>
    <trip id="346" depart="7793.00" from="27115123#2" to="-28198821#4"/>
    <trip id="347" depart="7804.00" from="23429231#1" to="-28198821#4"/>
    <trip id="348" depart="7812.00" from="28198821#3" to="32038056#0"/>
    <trip id="349" depart="7827.00" from="28198821#3" to="32324544#0"/>
    <trip id="350" depart="7832.00" from="27115123#2" to="32038056#0"/>
    <trip id="351" depart="7855.00" from="23429231#1" to="32038056#0"/>
    <trip id="352" depart="7857.00" from="28198821#3" to="32038051#0"/>
    <trip id="353" depart="7860.00" from="23429231#1" to="32038056#0"/>
    <trip id="354" depart="7872.00" from="23429231#1" to="32038056#0"/>
    <trip id="355" depart="7880.00" from="23429231#1" to="-28198821#4"/>
    <trip id="356" depart="7886.00" from="23429231#1" to="-28198821#4"/>
    <trip id="357" depart="7919.00" from="130165204" to="32324544#0"/>
    <trip id="358" depart="7950.00" from="-32038056#3" to="32324544#0"/>
    <trip id="359" depart="7955.00" from="23429231#1" to="-28198821#4"/>
    <trip id="360" depart="7955.00" from="-32038056#3" to="32038051#0"/>
    <trip id="361" depart="7955.00" from="27115123#2" to="-28198821#4"/>
    <trip id="362" depart="7974.00" from="28198821#3" to="32324544#0"/>
    <trip id="363" depart="7988.00" from="28198821#3" to="32324544#0"/>
    <trip id="364" depart="8005.00" from="-32038056#3" to="32324544#0"/>
    <trip id="365" depart="8015.00" from="23429231#1" to="-28198821#4"/>
    <trip id="366" depart="8026.00" from="28198821#3" to="32324544#0"/>
    <trip id="367" depart="8028.00" from="-32038056#3" to="32324544#0"/>
    <trip id="368" depart="8030.00" from="27115123#2" to="32038056#0"/>
    <trip id="369" depart="8032.00" from="27115123#2" to="-28198821#4"/>
    <trip id="370" depart="8033.00" from="28198821#3" to="32038051#0"/>
    <trip id="371" depart="8056.00" from="-32038056#3" to="32038051#0"/>
    <trip id="372" depart="8065.00" from="23429231#1" to="-28198821#4"/>
    <trip id="373" depart="8118.00" from="23429231#1" to="32038051#0"/>
    <trip id="374" depart="8127.00" from="27115123#2" to="32038056#0"/>
    <trip id="375" depart="8132.00" from="23429231#1" to="-28198821#4"/>
    <trip id="376" depart="8173.00" from="-32038056#3" to="32038051#0"/>
    <trip id="377" depart="8197.00" from="27115123#2" to="32324544#0"/>
    <trip id="378" depart="8233.00" from="27115123#2" to="-28198821#4"/>
    <trip id="379" depart="8235.00" from="-32038056#3" to="32324544#0"/>
    <trip id="380" depart="8239.00" from="-32038056#3" to="32324544#0"/>
    <trip id="381" depart="8252.00" from="-32038056#3" to="-28198821#4"/>
    <trip id="382" depart="8256.00" from="27115123#2" to="-28198821#4"/>
    <trip id="383" depart="8260.00" from="-32038056#3" to="32324544#0"/>
    <trip id="384" depart="8264.00" from="28198821#3" to="32324544#0"/>
    <trip id="385" depart="8277.00" from="130165204" to="32038051#0"/>
    <trip id="386" depart="8281.00" from="23429231#1" to="32038056#0"/>
    <trip id="387" depart="8295.00" from="27115123#2" to="32038056#0"/>
    <trip id="388" depart="8315.00" from="-32038056#3" to="32038051#0"/>
    <trip id="389" depart="8324.00" from="130165204" to="-28198821#4"/>
    <trip id="390" depart="8331.00" from="-32038056#3" to="32038051#0"/>
    <trip id="391" depart="8342.00" from="-32038056#3" to="-28198821#4"/>